
#======================================================================
# CRYSTAL DATA
#----------------------------------------------------------------------
data_VESTA_phase_1

_chemical_name_common                  ''
_cell_length_a                         10.2646(13)
_cell_length_b                         32.685(2)
_cell_length_c                         33.689(4)
_cell_angle_alpha                      90.000000
_cell_angle_beta                       90.000000
_cell_angle_gamma                      90.000000
_cell_volume                           11302.607294
_space_group_name_H-M_alt              'P 1'
_space_group_IT_number                 1

loop_
_space_group_symop_operation_xyz
   'x, y, z'

loop_
   _atom_site_label
   _atom_site_occupancy
   _atom_site_fract_x
   _atom_site_fract_y
   _atom_site_fract_z
   _atom_site_adp_type
   _atom_site_U_iso_or_equiv
   _atom_site_type_symbol
   Cu1        1.0     0.07097(12)  0.42167(3)   0.15675(4)  Uani  0.113167 Cu
   Cu1        1.0     0.92903(12)  0.57833(3)   0.84325(4)  Uani  0.113167 Cu
   Cu1        1.0     0.42903(12)  0.07833(3)   0.15675(4)  Uani  0.113167 Cu
   Cu1        1.0     0.57097(12)  0.92167(3)   0.84325(4)  Uani  0.113167 Cu
   Cu1        1.0     0.42903(12)  0.42167(3)   0.34325(4)  Uani  0.113167 Cu
   Cu1        1.0     0.57097(12)  0.57833(3)   0.65675(4)  Uani  0.113167 Cu
   Cu1        1.0     0.07097(12)  0.07833(3)   0.34325(4)  Uani  0.113167 Cu
   Cu1        1.0     0.92903(12)  0.92167(3)   0.65675(4)  Uani  0.113167 Cu
   Cu5        1.0     0.57527(14)  0.23037(3)   0.02822(5)  Uani  0.132033 Cu
   Cu5        1.0     0.42473(14)  0.76963(3)   0.97178(5)  Uani  0.132033 Cu
   Cu5        1.0     0.92473(14)  0.26963(3)   0.02822(5)  Uani  0.132033 Cu
   Cu5        1.0     0.07527(14)  0.73037(3)   0.97178(5)  Uani  0.132033 Cu
   Cu5        1.0     0.92473(14)  0.23037(3)   0.47178(5)  Uani  0.132033 Cu
   Cu5        1.0     0.07527(14)  0.76963(3)   0.52822(5)  Uani  0.132033 Cu
   Cu5        1.0     0.57527(14)  0.26963(3)   0.47178(5)  Uani  0.132033 Cu
   Cu5        1.0     0.42473(14)  0.73037(3)   0.52822(5)  Uani  0.132033 Cu
   Cu4        1.0     0.750000     0.250000     0.09743(6)  Uani  0.116200 Cu
   Cu4        1.0     0.250000     0.750000     0.90257(6)  Uani  0.116200 Cu
   Cu4        1.0     0.750000     0.250000     0.40257(6)  Uani  0.116200 Cu
   Cu4        1.0     0.250000     0.750000     0.59743(6)  Uani  0.116200 Cu
   Cu2        1.0     0.20625(13)  0.47613(3)   0.09133(4)  Uani  0.121233 Cu
   Cu2        1.0     0.79375(13)  0.52387(3)   0.90867(4)  Uani  0.121233 Cu
   Cu2        1.0     0.29375(13)  0.02387(3)   0.09133(4)  Uani  0.121233 Cu
   Cu2        1.0     0.70625(13)  0.97613(3)   0.90867(4)  Uani  0.121233 Cu
   Cu2        1.0     0.29375(13)  0.47613(3)   0.40867(4)  Uani  0.121233 Cu
   Cu2        1.0     0.70625(13)  0.52387(3)   0.59133(4)  Uani  0.121233 Cu
   Cu2        1.0     0.20625(13)  0.02387(3)   0.40867(4)  Uani  0.121233 Cu
   Cu2        1.0     0.79375(13)  0.97613(3)   0.59133(4)  Uani  0.121233 Cu
   Cu3        1.0     0.94318(16)  0.50611(4)   0.13168(5)  Uani  0.150733 Cu
   Cu3        1.0     0.05682(16)  0.49389(4)   0.86832(5)  Uani  0.150733 Cu
   Cu3        1.0     0.55682(16)  0.99389(4)   0.13168(5)  Uani  0.150733 Cu
   Cu3        1.0     0.44318(16)  0.00611(4)   0.86832(5)  Uani  0.150733 Cu
   Cu3        1.0     0.55682(16)  0.50611(4)   0.36832(5)  Uani  0.150733 Cu
   Cu3        1.0     0.44318(16)  0.49389(4)   0.63168(5)  Uani  0.150733 Cu
   Cu3        1.0     0.94318(16)  0.99389(4)   0.36832(5)  Uani  0.150733 Cu
   Cu3        1.0     0.05682(16)  0.00611(4)   0.63168(5)  Uani  0.150733 Cu
   C25        1.0     0.4463(8)    0.32917(18)  0.0905(2)   Uani  0.103333 C
   C25        1.0     0.5537(8)    0.67083(18)  0.9095(2)   Uani  0.103333 C
   C25        1.0     0.0537(8)    0.17083(18)  0.0905(2)   Uani  0.103333 C
   C25        1.0     0.9463(8)    0.82917(18)  0.9095(2)   Uani  0.103333 C
   C25        1.0     0.0537(8)    0.32917(18)  0.4095(2)   Uani  0.103333 C
   C25        1.0     0.9463(8)    0.67083(18)  0.5905(2)   Uani  0.103333 C
   C25        1.0     0.4463(8)    0.17083(18)  0.4095(2)   Uani  0.103333 C
   C25        1.0     0.5537(8)    0.82917(18)  0.5905(2)   Uani  0.103333 C
   C18        1.0     0.3620(7)    0.36276(18)  0.1001(2)   Uani  0.099000 C
   C18        1.0     0.6380(7)    0.63724(18)  0.8999(2)   Uani  0.099000 C
   C18        1.0     0.1380(7)    0.13724(18)  0.1001(2)   Uani  0.099000 C
   C18        1.0     0.8620(7)    0.86276(18)  0.8999(2)   Uani  0.099000 C
   C18        1.0     0.1380(7)    0.36276(18)  0.3999(2)   Uani  0.099000 C
   C18        1.0     0.8620(7)    0.63724(18)  0.6001(2)   Uani  0.099000 C
   C18        1.0     0.3620(7)    0.13724(18)  0.3999(2)   Uani  0.099000 C
   C18        1.0     0.6380(7)    0.86276(18)  0.6001(2)   Uani  0.099000 C
   N6         1.0     0.2010(7)    0.39997(16)  0.1276(2)   Uani  0.104667 N
   N6         1.0     0.7990(7)    0.60003(16)  0.8724(2)   Uani  0.104667 N
   N6         1.0     0.2990(7)    0.10003(16)  0.1276(2)   Uani  0.104667 N
   N6         1.0     0.7010(7)    0.89997(16)  0.8724(2)   Uani  0.104667 N
   N6         1.0     0.2990(7)    0.39997(16)  0.3724(2)   Uani  0.104667 N
   N6         1.0     0.7010(7)    0.60003(16)  0.6276(2)   Uani  0.104667 N
   N6         1.0     0.2010(7)    0.10003(16)  0.3724(2)   Uani  0.104667 N
   N6         1.0     0.7990(7)    0.89997(16)  0.6276(2)   Uani  0.104667 N
   N5         1.0     0.2664(7)    0.42500(17)  0.1006(2)   Uani  0.117000 N
   N5         1.0     0.7336(7)    0.57500(17)  0.8994(2)   Uani  0.117000 N
   N5         1.0     0.2336(7)    0.07500(17)  0.1006(2)   Uani  0.117000 N
   N5         1.0     0.7664(7)    0.92500(17)  0.8994(2)   Uani  0.117000 N
   N5         1.0     0.2336(7)    0.42500(17)  0.3994(2)   Uani  0.117000 N
   N5         1.0     0.7664(7)    0.57500(17)  0.6006(2)   Uani  0.117000 N
   N5         1.0     0.2664(7)    0.07500(17)  0.3994(2)   Uani  0.117000 N
   N5         1.0     0.7336(7)    0.92500(17)  0.6006(2)   Uani  0.117000 N
   N8         1.0     0.6033(7)    0.28051(16)  0.0926(2)   Uani  0.113333 N
   N8         1.0     0.3967(7)    0.71949(16)  0.9074(2)   Uani  0.113333 N
   N8         1.0     0.8967(7)    0.21949(16)  0.0926(2)   Uani  0.113333 N
   N8         1.0     0.1033(7)    0.78051(16)  0.9074(2)   Uani  0.113333 N
   N8         1.0     0.8967(7)    0.28051(16)  0.4074(2)   Uani  0.113333 N
   N8         1.0     0.1033(7)    0.71949(16)  0.5926(2)   Uani  0.113333 N
   N8         1.0     0.6033(7)    0.21949(16)  0.4074(2)   Uani  0.113333 N
   N8         1.0     0.3967(7)    0.78051(16)  0.5926(2)   Uani  0.113333 N
   N10        1.0     0.8765(8)    0.4769(2)    0.1732(2)   Uani  0.150000 N
   N10        1.0     0.1235(8)    0.5231(2)    0.8268(2)   Uani  0.150000 N
   N10        1.0     0.6235(8)    0.0231(2)    0.1732(2)   Uani  0.150000 N
   N10        1.0     0.3765(8)    0.9769(2)    0.8268(2)   Uani  0.150000 N
   N10        1.0     0.6235(8)    0.4769(2)    0.3268(2)   Uani  0.150000 N
   N10        1.0     0.3765(8)    0.5231(2)    0.6732(2)   Uani  0.150000 N
   N10        1.0     0.8765(8)    0.0231(2)    0.3268(2)   Uani  0.150000 N
   N10        1.0     0.1235(8)    0.9769(2)    0.6732(2)   Uani  0.150000 N
   N3         1.0     0.1426(7)    0.52683(18)  0.0806(2)   Uani  0.127333 N
   N3         1.0     0.8574(7)    0.47317(18)  0.9194(2)   Uani  0.127333 N
   N3         1.0     0.3574(7)    0.97317(18)  0.0806(2)   Uani  0.127333 N
   N3         1.0     0.6426(7)    0.02683(18)  0.9194(2)   Uani  0.127333 N
   N3         1.0     0.3574(7)    0.52683(18)  0.4194(2)   Uani  0.127333 N
   N3         1.0     0.6426(7)    0.47317(18)  0.5806(2)   Uani  0.127333 N
   N3         1.0     0.1426(7)    0.97317(18)  0.4194(2)   Uani  0.127333 N
   N3         1.0     0.8574(7)    0.02683(18)  0.5806(2)   Uani  0.127333 N
   C19        1.0     0.2588(7)    0.36333(16)  0.1258(2)   Uani  0.100000 C
   C19        1.0     0.7412(7)    0.63667(16)  0.8742(2)   Uani  0.100000 C
   C19        1.0     0.2412(7)    0.13667(16)  0.1258(2)   Uani  0.100000 C
   C19        1.0     0.7588(7)    0.86333(16)  0.8742(2)   Uani  0.100000 C
   C19        1.0     0.2412(7)    0.36333(16)  0.3742(2)   Uani  0.100000 C
   C19        1.0     0.7588(7)    0.63667(16)  0.6258(2)   Uani  0.100000 C
   C19        1.0     0.2588(7)    0.13667(16)  0.3742(2)   Uani  0.100000 C
   C19        1.0     0.7412(7)    0.86333(16)  0.6258(2)   Uani  0.100000 C
   C24        1.0     0.4401(7)    0.3035(2)    0.05979(18) Uani  0.123667 C
   C24        1.0     0.5599(7)    0.6965(2)    0.94021(18) Uani  0.123667 C
   C24        1.0     0.0599(7)    0.1965(2)    0.05979(18) Uani  0.123667 C
   C24        1.0     0.9401(7)    0.8035(2)    0.94021(18) Uani  0.123667 C
   C24        1.0     0.0599(7)    0.3035(2)    0.44021(18) Uani  0.123667 C
   C24        1.0     0.9401(7)    0.6965(2)    0.55979(18) Uani  0.123667 C
   C24        1.0     0.4401(7)    0.1965(2)    0.44021(18) Uani  0.123667 C
   C24        1.0     0.5599(7)    0.8035(2)    0.55979(18) Uani  0.123667 C
   C32        1.0     0.7888(9)    0.4600(2)    0.2332(4)   Uani  0.123667 C
   C32        1.0     0.2112(9)    0.5400(2)    0.7668(4)   Uani  0.123667 C
   C32        1.0     0.7112(9)    0.0400(2)    0.2332(4)   Uani  0.123667 C
   C32        1.0     0.2888(9)    0.9600(2)    0.7668(4)   Uani  0.123667 C
   C32        1.0     0.7112(9)    0.4600(2)    0.2668(4)   Uani  0.123667 C
   C32        1.0     0.2888(9)    0.5400(2)    0.7332(4)   Uani  0.123667 C
   C32        1.0     0.7888(9)    0.0400(2)    0.2668(4)   Uani  0.123667 C
   C32        1.0     0.2112(9)    0.9600(2)    0.7332(4)   Uani  0.123667 C
   C17        1.0     0.3627(7)    0.4018(2)    0.0854(2)   Uani  0.108667 C
   C17        1.0     0.6373(7)    0.5982(2)    0.9146(2)   Uani  0.108667 C
   C17        1.0     0.1373(7)    0.0982(2)    0.0854(2)   Uani  0.108667 C
   C17        1.0     0.8627(7)    0.9018(2)    0.9146(2)   Uani  0.108667 C
   C17        1.0     0.1373(7)    0.4018(2)    0.4146(2)   Uani  0.108667 C
   C17        1.0     0.8627(7)    0.5982(2)    0.5854(2)   Uani  0.108667 C
   C17        1.0     0.3627(7)    0.0982(2)    0.4146(2)   Uani  0.108667 C
   C17        1.0     0.6373(7)    0.9018(2)    0.5854(2)   Uani  0.108667 C
   C33        1.0     0.7882(7)    0.4865(2)    0.2019(4)   Uani  0.136000 C
   C33        1.0     0.2118(7)    0.5135(2)    0.7981(4)   Uani  0.136000 C
   C33        1.0     0.7118(7)    0.0135(2)    0.2019(4)   Uani  0.136000 C
   C33        1.0     0.2882(7)    0.9865(2)    0.7981(4)   Uani  0.136000 C
   C33        1.0     0.7118(7)    0.4865(2)    0.2981(4)   Uani  0.136000 C
   C33        1.0     0.2882(7)    0.5135(2)    0.7019(4)   Uani  0.136000 C
   C33        1.0     0.7882(7)    0.0135(2)    0.2981(4)   Uani  0.136000 C
   C33        1.0     0.2118(7)    0.9865(2)    0.7019(4)   Uani  0.136000 C
   N9         1.0     0.9398(7)    0.4427(2)    0.1865(2)   Uani  0.122333 N
   N9         1.0     0.0602(7)    0.5573(2)    0.8135(2)   Uani  0.122333 N
   N9         1.0     0.5602(7)    0.0573(2)    0.1865(2)   Uani  0.122333 N
   N9         1.0     0.4398(7)    0.9427(2)    0.8135(2)   Uani  0.122333 N
   N9         1.0     0.5602(7)    0.4427(2)    0.3135(2)   Uani  0.122333 N
   N9         1.0     0.4398(7)    0.5573(2)    0.6865(2)   Uani  0.122333 N
   N9         1.0     0.9398(7)    0.0573(2)    0.3135(2)   Uani  0.122333 N
   N9         1.0     0.0602(7)    0.9427(2)    0.6865(2)   Uani  0.122333 N
   N7         1.0     0.5334(7)    0.27423(18)  0.0592(4)   Uani  0.129667 N
   N7         1.0     0.4666(7)    0.72577(18)  0.9408(4)   Uani  0.129667 N
   N7         1.0     0.9666(7)    0.22577(18)  0.0592(4)   Uani  0.129667 N
   N7         1.0     0.0334(7)    0.77423(18)  0.9408(4)   Uani  0.129667 N
   N7         1.0     0.9666(7)    0.27423(18)  0.4408(4)   Uani  0.129667 N
   N7         1.0     0.0334(7)    0.72577(18)  0.5592(4)   Uani  0.129667 N
   N7         1.0     0.5334(7)    0.22577(18)  0.4408(4)   Uani  0.129667 N
   N7         1.0     0.4666(7)    0.77423(18)  0.5592(4)   Uani  0.129667 N
   N4         1.0     0.0226(8)    0.5385(2)    0.0950(2)   Uani  0.140333 N
   N4         1.0     0.9774(8)    0.4615(2)    0.9050(2)   Uani  0.140333 N
   N4         1.0     0.4774(8)    0.9615(2)    0.0950(2)   Uani  0.140333 N
   N4         1.0     0.5226(8)    0.0385(2)    0.9050(2)   Uani  0.140333 N
   N4         1.0     0.4774(8)    0.5385(2)    0.4050(2)   Uani  0.140333 N
   N4         1.0     0.5226(8)    0.4615(2)    0.5950(2)   Uani  0.140333 N
   N4         1.0     0.0226(8)    0.9615(2)    0.4050(2)   Uani  0.140333 N
   N4         1.0     0.9774(8)    0.0385(2)    0.5950(2)   Uani  0.140333 N
   C31        1.0     0.8874(7)    0.4335(2)    0.2217(2)   Uani  0.117667 C
   C31        1.0     0.1126(7)    0.5665(2)    0.7783(2)   Uani  0.117667 C
   C31        1.0     0.6126(7)    0.0665(2)    0.2217(2)   Uani  0.117667 C
   C31        1.0     0.3874(7)    0.9335(2)    0.7783(2)   Uani  0.117667 C
   C31        1.0     0.6126(7)    0.4335(2)    0.2783(2)   Uani  0.117667 C
   C31        1.0     0.3874(7)    0.5665(2)    0.7217(2)   Uani  0.117667 C
   C31        1.0     0.8874(7)    0.0665(2)    0.2783(2)   Uani  0.117667 C
   C31        1.0     0.1126(7)    0.9335(2)    0.7217(2)   Uani  0.117667 C
   C26        1.0     0.5504(7)    0.3146(2)    0.1111(2)   Uani  0.113667 C
   C26        1.0     0.4496(7)    0.6854(2)    0.8889(2)   Uani  0.113667 C
   C26        1.0     0.9496(7)    0.1854(2)    0.1111(2)   Uani  0.113667 C
   C26        1.0     0.0504(7)    0.8146(2)    0.8889(2)   Uani  0.113667 C
   C26        1.0     0.9496(7)    0.3146(2)    0.3889(2)   Uani  0.113667 C
   C26        1.0     0.0504(7)    0.6854(2)    0.6111(2)   Uani  0.113667 C
   C26        1.0     0.5504(7)    0.1854(2)    0.3889(2)   Uani  0.113667 C
   C26        1.0     0.4496(7)    0.8146(2)    0.6111(2)   Uani  0.113667 C
   C21        1.0     0.1037(8)    0.3032(4)    0.1311(4)   Uani  0.217000 C
   C21        1.0     0.8963(8)    0.6968(4)    0.8689(4)   Uani  0.217000 C
   C21        1.0     0.3963(8)    0.1968(4)    0.1311(4)   Uani  0.217000 C
   C21        1.0     0.6037(8)    0.8032(4)    0.8689(4)   Uani  0.217000 C
   C21        1.0     0.3963(8)    0.3032(4)    0.3689(4)   Uani  0.217000 C
   C21        1.0     0.6037(8)    0.6968(4)    0.6311(4)   Uani  0.217000 C
   C21        1.0     0.1037(8)    0.1968(4)    0.3689(4)   Uani  0.217000 C
   C21        1.0     0.8963(8)    0.8032(4)    0.6311(4)   Uani  0.217000 C
   H21A       1.0     0.047600     0.321100     0.116300    Uiso  0.325000 H
   H21A       1.0     0.952400     0.678900     0.883700    Uiso  0.325000 H
   H21A       1.0     0.452400     0.178900     0.116300    Uiso  0.325000 H
   H21A       1.0     0.547600     0.821100     0.883700    Uiso  0.325000 H
   H21A       1.0     0.452400     0.321100     0.383700    Uiso  0.325000 H
   H21A       1.0     0.547600     0.678900     0.616300    Uiso  0.325000 H
   H21A       1.0     0.047600     0.178900     0.383700    Uiso  0.325000 H
   H21A       1.0     0.952400     0.821100     0.616300    Uiso  0.325000 H
   H21B       1.0     0.053300     0.288300     0.150300    Uiso  0.325000 H
   H21B       1.0     0.946700     0.711700     0.849700    Uiso  0.325000 H
   H21B       1.0     0.446700     0.211700     0.150300    Uiso  0.325000 H
   H21B       1.0     0.553300     0.788300     0.849700    Uiso  0.325000 H
   H21B       1.0     0.446700     0.288300     0.349700    Uiso  0.325000 H
   H21B       1.0     0.553300     0.711700     0.650300    Uiso  0.325000 H
   H21B       1.0     0.053300     0.211700     0.349700    Uiso  0.325000 H
   H21B       1.0     0.946700     0.788300     0.650300    Uiso  0.325000 H
   H21C       1.0     0.145100     0.284300     0.113300    Uiso  0.325000 H
   H21C       1.0     0.854900     0.715700     0.886700    Uiso  0.325000 H
   H21C       1.0     0.354900     0.215700     0.113300    Uiso  0.325000 H
   H21C       1.0     0.645100     0.784300     0.886700    Uiso  0.325000 H
   H21C       1.0     0.354900     0.284300     0.386700    Uiso  0.325000 H
   H21C       1.0     0.645100     0.715700     0.613300    Uiso  0.325000 H
   H21C       1.0     0.145100     0.215700     0.386700    Uiso  0.325000 H
   H21C       1.0     0.854900     0.784300     0.613300    Uiso  0.325000 H
   C27        1.0     0.6128(7)    0.3290(4)    0.1505(2)   Uani  0.146333 C
   C27        1.0     0.3872(7)    0.6710(4)    0.8495(2)   Uani  0.146333 C
   C27        1.0     0.8872(7)    0.1710(4)    0.1505(2)   Uani  0.146333 C
   C27        1.0     0.1128(7)    0.8290(4)    0.8495(2)   Uani  0.146333 C
   C27        1.0     0.8872(7)    0.3290(4)    0.3495(2)   Uani  0.146333 C
   C27        1.0     0.1128(7)    0.6710(4)    0.6505(2)   Uani  0.146333 C
   C27        1.0     0.6128(7)    0.1710(4)    0.3495(2)   Uani  0.146333 C
   C27        1.0     0.3872(7)    0.8290(4)    0.6505(2)   Uani  0.146333 C
   H27A       1.0     0.634200     0.305400     0.166600    Uiso  0.176000 H
   H27A       1.0     0.365800     0.694600     0.833400    Uiso  0.176000 H
   H27A       1.0     0.865800     0.194600     0.166600    Uiso  0.176000 H
   H27A       1.0     0.134200     0.805400     0.833400    Uiso  0.176000 H
   H27A       1.0     0.865800     0.305400     0.333400    Uiso  0.176000 H
   H27A       1.0     0.134200     0.694600     0.666600    Uiso  0.176000 H
   H27A       1.0     0.634200     0.194600     0.333400    Uiso  0.176000 H
   H27A       1.0     0.365800     0.805400     0.666600    Uiso  0.176000 H
   H27B       1.0     0.550800     0.345600     0.165000    Uiso  0.176000 H
   H27B       1.0     0.449200     0.654400     0.835000    Uiso  0.176000 H
   H27B       1.0     0.949200     0.154400     0.165000    Uiso  0.176000 H
   H27B       1.0     0.050800     0.845600     0.835000    Uiso  0.176000 H
   H27B       1.0     0.949200     0.345600     0.335000    Uiso  0.176000 H
   H27B       1.0     0.050800     0.654400     0.665000    Uiso  0.176000 H
   H27B       1.0     0.550800     0.154400     0.335000    Uiso  0.176000 H
   H27B       1.0     0.449200     0.845600     0.665000    Uiso  0.176000 H
   C20        1.0     0.2089(8)    0.3288(2)    0.1527(2)   Uani  0.122000 C
   C20        1.0     0.7911(8)    0.6712(2)    0.8473(2)   Uani  0.122000 C
   C20        1.0     0.2911(8)    0.1712(2)    0.1527(2)   Uani  0.122000 C
   C20        1.0     0.7089(8)    0.8288(2)    0.8473(2)   Uani  0.122000 C
   C20        1.0     0.2911(8)    0.3288(2)    0.3473(2)   Uani  0.122000 C
   C20        1.0     0.7089(8)    0.6712(2)    0.6527(2)   Uani  0.122000 C
   C20        1.0     0.2089(8)    0.1712(2)    0.3473(2)   Uani  0.122000 C
   C20        1.0     0.7911(8)    0.8288(2)    0.6527(2)   Uani  0.122000 C
   H20A       1.0     0.172200     0.340400     0.176700    Uiso  0.146000 H
   H20A       1.0     0.827800     0.659600     0.823300    Uiso  0.146000 H
   H20A       1.0     0.327800     0.159600     0.176700    Uiso  0.146000 H
   H20A       1.0     0.672200     0.840400     0.823300    Uiso  0.146000 H
   H20A       1.0     0.327800     0.340400     0.323300    Uiso  0.146000 H
   H20A       1.0     0.672200     0.659600     0.676700    Uiso  0.146000 H
   H20A       1.0     0.172200     0.159600     0.323300    Uiso  0.146000 H
   H20A       1.0     0.827800     0.840400     0.676700    Uiso  0.146000 H
   H20B       1.0     0.280900     0.311300     0.160200    Uiso  0.146000 H
   H20B       1.0     0.719100     0.688700     0.839800    Uiso  0.146000 H
   H20B       1.0     0.219100     0.188700     0.160200    Uiso  0.146000 H
   H20B       1.0     0.780900     0.811300     0.839800    Uiso  0.146000 H
   H20B       1.0     0.219100     0.311300     0.339800    Uiso  0.146000 H
   H20B       1.0     0.780900     0.688700     0.660200    Uiso  0.146000 H
   H20B       1.0     0.280900     0.188700     0.339800    Uiso  0.146000 H
   H20B       1.0     0.719100     0.811300     0.660200    Uiso  0.146000 H
   C10        1.0     0.1846(5)    0.5587(2)    0.0589(4)   Uani  0.128667 C
   C10        1.0     0.8154(5)    0.4413(2)    0.9411(4)   Uani  0.128667 C
   C10        1.0     0.3154(5)    0.9413(2)    0.0589(4)   Uani  0.128667 C
   C10        1.0     0.6846(5)    0.0587(2)    0.9411(4)   Uani  0.128667 C
   C10        1.0     0.3154(5)    0.5587(2)    0.4411(4)   Uani  0.128667 C
   C10        1.0     0.6846(5)    0.4413(2)    0.5589(4)   Uani  0.128667 C
   C10        1.0     0.1846(5)    0.9413(2)    0.4411(4)   Uani  0.128667 C
   C10        1.0     0.8154(5)    0.0587(2)    0.5589(4)   Uani  0.128667 C
   C4         1.0     0.1228(10)   0.6328(2)    0.0441(4)   Uani  0.119333 C
   C4         1.0     0.8772(10)   0.3672(2)    0.9559(4)   Uani  0.119333 C
   C4         1.0     0.3772(10)   0.8672(2)    0.0441(4)   Uani  0.119333 C
   C4         1.0     0.6228(10)   0.1328(2)    0.9559(4)   Uani  0.119333 C
   C4         1.0     0.3772(10)   0.6328(2)    0.4559(4)   Uani  0.119333 C
   C4         1.0     0.6228(10)   0.3672(2)    0.5441(4)   Uani  0.119333 C
   C4         1.0     0.1228(10)   0.8672(2)    0.4559(4)   Uani  0.119333 C
   C4         1.0     0.8772(10)   0.1328(2)    0.5441(4)   Uani  0.119333 C
   C12        1.0     0.0021(7)    0.5778(2)    0.0830(4)   Uani  0.135667 C
   C12        1.0     0.9979(7)    0.4222(2)    0.9170(4)   Uani  0.135667 C
   C12        1.0     0.4979(7)    0.9222(2)    0.0830(4)   Uani  0.135667 C
   C12        1.0     0.5021(7)    0.0778(2)    0.9170(4)   Uani  0.135667 C
   C12        1.0     0.4979(7)    0.5778(2)    0.4170(4)   Uani  0.135667 C
   C12        1.0     0.5021(7)    0.4222(2)    0.5830(4)   Uani  0.135667 C
   C12        1.0     0.0021(7)    0.9222(2)    0.4170(4)   Uani  0.135667 C
   C12        1.0     0.9979(7)    0.0778(2)    0.5830(4)   Uani  0.135667 C
   C11        1.0     0.1083(11)   0.5922(2)    0.0604(4)   Uani  0.140333 C
   C11        1.0     0.8917(11)   0.4078(2)    0.9396(4)   Uani  0.140333 C
   C11        1.0     0.3917(11)   0.9078(2)    0.0604(4)   Uani  0.140333 C
   C11        1.0     0.6083(11)   0.0922(2)    0.9396(4)   Uani  0.140333 C
   C11        1.0     0.3917(11)   0.5922(2)    0.4396(4)   Uani  0.140333 C
   C11        1.0     0.6083(11)   0.4078(2)    0.5604(4)   Uani  0.140333 C
   C11        1.0     0.1083(11)   0.9078(2)    0.4396(4)   Uani  0.140333 C
   C11        1.0     0.8917(11)   0.0922(2)    0.5604(4)   Uani  0.140333 C
   C16        1.0     0.4589(7)    0.4227(2)    0.0566(2)   Uani  0.136000 C
   C16        1.0     0.5411(7)    0.5773(2)    0.9434(2)   Uani  0.136000 C
   C16        1.0     0.0411(7)    0.0773(2)    0.0566(2)   Uani  0.136000 C
   C16        1.0     0.9589(7)    0.9227(2)    0.9434(2)   Uani  0.136000 C
   C16        1.0     0.0411(7)    0.4227(2)    0.4434(2)   Uani  0.136000 C
   C16        1.0     0.9589(7)    0.5773(2)    0.5566(2)   Uani  0.136000 C
   C16        1.0     0.4589(7)    0.0773(2)    0.4434(2)   Uani  0.136000 C
   C16        1.0     0.5411(7)    0.9227(2)    0.5566(2)   Uani  0.136000 C
   H16A       1.0     0.411800     0.440600     0.038600    Uiso  0.163000 H
   H16A       1.0     0.588200     0.559400     0.961400    Uiso  0.163000 H
   H16A       1.0     0.088200     0.059400     0.038600    Uiso  0.163000 H
   H16A       1.0     0.911800     0.940600     0.961400    Uiso  0.163000 H
   H16A       1.0     0.088200     0.440600     0.461400    Uiso  0.163000 H
   H16A       1.0     0.911800     0.559400     0.538600    Uiso  0.163000 H
   H16A       1.0     0.411800     0.059400     0.461400    Uiso  0.163000 H
   H16A       1.0     0.588200     0.940600     0.538600    Uiso  0.163000 H
   H16B       1.0     0.504000     0.402200     0.040900    Uiso  0.163000 H
   H16B       1.0     0.496000     0.597800     0.959100    Uiso  0.163000 H
   H16B       1.0     0.996000     0.097800     0.040900    Uiso  0.163000 H
   H16B       1.0     0.004000     0.902200     0.959100    Uiso  0.163000 H
   H16B       1.0     0.996000     0.402200     0.459100    Uiso  0.163000 H
   H16B       1.0     0.004000     0.597800     0.540900    Uiso  0.163000 H
   H16B       1.0     0.504000     0.097800     0.459100    Uiso  0.163000 H
   H16B       1.0     0.496000     0.902200     0.540900    Uiso  0.163000 H
   C14        1.0     0.8470(13)   0.6199(4)    0.1251(4)   Uani  0.404333 C
   C14        1.0     0.1530(13)   0.3801(4)    0.8749(4)   Uani  0.404333 C
   C14        1.0     0.6530(13)   0.8801(4)    0.1251(4)   Uani  0.404333 C
   C14        1.0     0.3470(13)   0.1199(4)    0.8749(4)   Uani  0.404333 C
   C14        1.0     0.6530(13)   0.6199(4)    0.3749(4)   Uani  0.404333 C
   C14        1.0     0.3470(13)   0.3801(4)    0.6251(4)   Uani  0.404333 C
   C14        1.0     0.8470(13)   0.8801(4)    0.3749(4)   Uani  0.404333 C
   C14        1.0     0.1530(13)   0.1199(4)    0.6251(4)   Uani  0.404333 C
   H14A       1.0     0.804600     0.604300     0.145500    Uiso  0.607000 H
   H14A       1.0     0.195400     0.395700     0.854500    Uiso  0.607000 H
   H14A       1.0     0.695400     0.895700     0.145500    Uiso  0.607000 H
   H14A       1.0     0.304600     0.104300     0.854500    Uiso  0.607000 H
   H14A       1.0     0.695400     0.604300     0.354500    Uiso  0.607000 H
   H14A       1.0     0.304600     0.395700     0.645500    Uiso  0.607000 H
   H14A       1.0     0.804600     0.895700     0.354500    Uiso  0.607000 H
   H14A       1.0     0.195400     0.104300     0.645500    Uiso  0.607000 H
   H14B       1.0     0.797200     0.644100     0.119700    Uiso  0.607000 H
   H14B       1.0     0.202800     0.355900     0.880300    Uiso  0.607000 H
   H14B       1.0     0.702800     0.855900     0.119700    Uiso  0.607000 H
   H14B       1.0     0.297200     0.144100     0.880300    Uiso  0.607000 H
   H14B       1.0     0.702800     0.644100     0.380300    Uiso  0.607000 H
   H14B       1.0     0.297200     0.355900     0.619700    Uiso  0.607000 H
   H14B       1.0     0.797200     0.855900     0.380300    Uiso  0.607000 H
   H14B       1.0     0.202800     0.144100     0.619700    Uiso  0.607000 H
   H14C       1.0     0.932700     0.627500     0.133800    Uiso  0.607000 H
   H14C       1.0     0.067300     0.372500     0.866200    Uiso  0.607000 H
   H14C       1.0     0.567300     0.872500     0.133800    Uiso  0.607000 H
   H14C       1.0     0.432700     0.127500     0.866200    Uiso  0.607000 H
   H14C       1.0     0.567300     0.627500     0.366200    Uiso  0.607000 H
   H14C       1.0     0.432700     0.372500     0.633800    Uiso  0.607000 H
   H14C       1.0     0.932700     0.872500     0.366200    Uiso  0.607000 H
   H14C       1.0     0.067300     0.127500     0.633800    Uiso  0.607000 H
   C9         1.0     0.3151(7)    0.5530(4)    0.0359(2)   Uani  0.162667 C
   C9         1.0     0.6849(7)    0.4470(4)    0.9641(2)   Uani  0.162667 C
   C9         1.0     0.1849(7)    0.9470(4)    0.0359(2)   Uani  0.162667 C
   C9         1.0     0.8151(7)    0.0530(4)    0.9641(2)   Uani  0.162667 C
   C9         1.0     0.1849(7)    0.5530(4)    0.4641(2)   Uani  0.162667 C
   C9         1.0     0.8151(7)    0.4470(4)    0.5359(2)   Uani  0.162667 C
   C9         1.0     0.3151(7)    0.9470(4)    0.4641(2)   Uani  0.162667 C
   C9         1.0     0.6849(7)    0.0530(4)    0.5359(2)   Uani  0.162667 C
   H9A        1.0     0.317800     0.571300     0.013200    Uiso  0.195000 H
   H9A        1.0     0.682200     0.428700     0.986800    Uiso  0.195000 H
   H9A        1.0     0.182200     0.928700     0.013200    Uiso  0.195000 H
   H9A        1.0     0.817800     0.071300     0.986800    Uiso  0.195000 H
   H9A        1.0     0.182200     0.571300     0.486800    Uiso  0.195000 H
   H9A        1.0     0.817800     0.428700     0.513200    Uiso  0.195000 H
   H9A        1.0     0.317800     0.928700     0.486800    Uiso  0.195000 H
   H9A        1.0     0.682200     0.071300     0.513200    Uiso  0.195000 H
   H9B        1.0     0.322600     0.525100     0.026400    Uiso  0.195000 H
   H9B        1.0     0.677400     0.474900     0.973600    Uiso  0.195000 H
   H9B        1.0     0.177400     0.974900     0.026400    Uiso  0.195000 H
   H9B        1.0     0.822600     0.025100     0.973600    Uiso  0.195000 H
   H9B        1.0     0.177400     0.525100     0.473600    Uiso  0.195000 H
   H9B        1.0     0.822600     0.474900     0.526400    Uiso  0.195000 H
   H9B        1.0     0.322600     0.974900     0.473600    Uiso  0.195000 H
   H9B        1.0     0.677400     0.025100     0.526400    Uiso  0.195000 H
   C34        1.0     0.6986(7)    0.5250(2)    0.1968(4)   Uani  0.189667 C
   C34        1.0     0.3014(7)    0.4750(2)    0.8032(4)   Uani  0.189667 C
   C34        1.0     0.8014(7)    0.9750(2)    0.1968(4)   Uani  0.189667 C
   C34        1.0     0.1986(7)    0.0250(2)    0.8032(4)   Uani  0.189667 C
   C34        1.0     0.8014(7)    0.5250(2)    0.3032(4)   Uani  0.189667 C
   C34        1.0     0.1986(7)    0.4750(2)    0.6968(4)   Uani  0.189667 C
   C34        1.0     0.6986(7)    0.9750(2)    0.3032(4)   Uani  0.189667 C
   C34        1.0     0.3014(7)    0.0250(2)    0.6968(4)   Uani  0.189667 C
   H34A       1.0     0.670600     0.534800     0.222600    Uiso  0.228000 H
   H34A       1.0     0.329400     0.465200     0.777400    Uiso  0.228000 H
   H34A       1.0     0.829400     0.965200     0.222600    Uiso  0.228000 H
   H34A       1.0     0.170600     0.034800     0.777400    Uiso  0.228000 H
   H34A       1.0     0.829400     0.534800     0.277400    Uiso  0.228000 H
   H34A       1.0     0.170600     0.465200     0.722600    Uiso  0.228000 H
   H34A       1.0     0.670600     0.965200     0.277400    Uiso  0.228000 H
   H34A       1.0     0.329400     0.034800     0.722600    Uiso  0.228000 H
   H34B       1.0     0.746200     0.546700     0.183600    Uiso  0.228000 H
   H34B       1.0     0.253800     0.453300     0.816400    Uiso  0.228000 H
   H34B       1.0     0.753800     0.953300     0.183600    Uiso  0.228000 H
   H34B       1.0     0.246200     0.046700     0.816400    Uiso  0.228000 H
   H34B       1.0     0.753800     0.546700     0.316400    Uiso  0.228000 H
   H34B       1.0     0.246200     0.453300     0.683600    Uiso  0.228000 H
   H34B       1.0     0.746200     0.953300     0.316400    Uiso  0.228000 H
   H34B       1.0     0.253800     0.046700     0.683600    Uiso  0.228000 H
   C23        1.0     0.3368(8)    0.3025(4)    0.0262(2)   Uani  0.168667 C
   C23        1.0     0.6632(8)    0.6975(4)    0.9738(2)   Uani  0.168667 C
   C23        1.0     0.1632(8)    0.1975(4)    0.0262(2)   Uani  0.168667 C
   C23        1.0     0.8368(8)    0.8025(4)    0.9738(2)   Uani  0.168667 C
   C23        1.0     0.1632(8)    0.3025(4)    0.4738(2)   Uani  0.168667 C
   C23        1.0     0.8368(8)    0.6975(4)    0.5262(2)   Uani  0.168667 C
   C23        1.0     0.3368(8)    0.1975(4)    0.4738(2)   Uani  0.168667 C
   C23        1.0     0.6632(8)    0.8025(4)    0.5262(2)   Uani  0.168667 C
   H23A       1.0     0.299800     0.275300     0.024200    Uiso  0.203000 H
   H23A       1.0     0.700200     0.724700     0.975800    Uiso  0.203000 H
   H23A       1.0     0.200200     0.224700     0.024200    Uiso  0.203000 H
   H23A       1.0     0.799800     0.775300     0.975800    Uiso  0.203000 H
   H23A       1.0     0.200200     0.275300     0.475800    Uiso  0.203000 H
   H23A       1.0     0.799800     0.724700     0.524200    Uiso  0.203000 H
   H23A       1.0     0.299800     0.224700     0.475800    Uiso  0.203000 H
   H23A       1.0     0.700200     0.775300     0.524200    Uiso  0.203000 H
   H23B       1.0     0.267000     0.321500     0.032300    Uiso  0.203000 H
   H23B       1.0     0.733000     0.678500     0.967700    Uiso  0.203000 H
   H23B       1.0     0.233000     0.178500     0.032300    Uiso  0.203000 H
   H23B       1.0     0.767000     0.821500     0.967700    Uiso  0.203000 H
   H23B       1.0     0.233000     0.321500     0.467700    Uiso  0.203000 H
   H23B       1.0     0.767000     0.678500     0.532300    Uiso  0.203000 H
   H23B       1.0     0.267000     0.178500     0.467700    Uiso  0.203000 H
   H23B       1.0     0.733000     0.821500     0.532300    Uiso  0.203000 H
   C30        1.0     0.9424(7)    0.3967(2)    0.2449(4)   Uani  0.149333 C
   C30        1.0     0.0576(7)    0.6033(2)    0.7551(4)   Uani  0.149333 C
   C30        1.0     0.5576(7)    0.1033(2)    0.2449(4)   Uani  0.149333 C
   C30        1.0     0.4424(7)    0.8967(2)    0.7551(4)   Uani  0.149333 C
   C30        1.0     0.5576(7)    0.3967(2)    0.2551(4)   Uani  0.149333 C
   C30        1.0     0.4424(7)    0.6033(2)    0.7449(4)   Uani  0.149333 C
   C30        1.0     0.9424(7)    0.1033(2)    0.2551(4)   Uani  0.149333 C
   C30        1.0     0.0576(7)    0.8967(2)    0.7449(4)   Uani  0.149333 C
   H30A       1.0     0.875900     0.386200     0.262600    Uiso  0.179000 H
   H30A       1.0     0.124100     0.613800     0.737400    Uiso  0.179000 H
   H30A       1.0     0.624100     0.113800     0.262600    Uiso  0.179000 H
   H30A       1.0     0.375900     0.886200     0.737400    Uiso  0.179000 H
   H30A       1.0     0.624100     0.386200     0.237400    Uiso  0.179000 H
   H30A       1.0     0.375900     0.613800     0.762600    Uiso  0.179000 H
   H30A       1.0     0.875900     0.113800     0.237400    Uiso  0.179000 H
   H30A       1.0     0.124100     0.886200     0.762600    Uiso  0.179000 H
   H30B       1.0     0.965200     0.375100     0.226400    Uiso  0.179000 H
   H30B       1.0     0.034800     0.624900     0.773600    Uiso  0.179000 H
   H30B       1.0     0.534800     0.124900     0.226400    Uiso  0.179000 H
   H30B       1.0     0.465200     0.875100     0.773600    Uiso  0.179000 H
   H30B       1.0     0.534800     0.375100     0.273600    Uiso  0.179000 H
   H30B       1.0     0.465200     0.624900     0.726400    Uiso  0.179000 H
   H30B       1.0     0.965200     0.124900     0.273600    Uiso  0.179000 H
   H30B       1.0     0.034800     0.875100     0.726400    Uiso  0.179000 H
   C22        1.0     0.4009(13)   0.3144(5)    0.9863(2)   Uani  0.272333 C
   C22        1.0     0.5991(13)   0.6856(5)    0.0137(2)   Uani  0.272333 C
   C22        1.0     0.0991(13)   0.1856(5)    0.9863(2)   Uani  0.272333 C
   C22        1.0     0.9009(13)   0.8144(5)    0.0137(2)   Uani  0.272333 C
   C22        1.0     0.0991(13)   0.3144(5)    0.5137(2)   Uani  0.272333 C
   C22        1.0     0.9009(13)   0.6856(5)    0.4863(2)   Uani  0.272333 C
   C22        1.0     0.4009(13)   0.1856(5)    0.5137(2)   Uani  0.272333 C
   C22        1.0     0.5991(13)   0.8144(5)    0.4863(2)   Uani  0.272333 C
   H22A       1.0     0.357400     0.337900     0.975500    Uiso  0.408000 H
   H22A       1.0     0.642600     0.662100     0.024500    Uiso  0.408000 H
   H22A       1.0     0.142600     0.162100     0.975500    Uiso  0.408000 H
   H22A       1.0     0.857400     0.837900     0.024500    Uiso  0.408000 H
   H22A       1.0     0.142600     0.337900     0.524500    Uiso  0.408000 H
   H22A       1.0     0.857400     0.662100     0.475500    Uiso  0.408000 H
   H22A       1.0     0.357400     0.162100     0.524500    Uiso  0.408000 H
   H22A       1.0     0.642600     0.837900     0.475500    Uiso  0.408000 H
   H22B       1.0     0.393900     0.292000     0.968000    Uiso  0.408000 H
   H22B       1.0     0.606100     0.708000     0.032000    Uiso  0.408000 H
   H22B       1.0     0.106100     0.208000     0.968000    Uiso  0.408000 H
   H22B       1.0     0.893900     0.792000     0.032000    Uiso  0.408000 H
   H22B       1.0     0.106100     0.292000     0.532000    Uiso  0.408000 H
   H22B       1.0     0.893900     0.708000     0.468000    Uiso  0.408000 H
   H22B       1.0     0.393900     0.208000     0.532000    Uiso  0.408000 H
   H22B       1.0     0.606100     0.792000     0.468000    Uiso  0.408000 H
   H22C       1.0     0.491100     0.320700     0.990600    Uiso  0.408000 H
   H22C       1.0     0.508900     0.679300     0.009400    Uiso  0.408000 H
   H22C       1.0     0.008900     0.179300     0.990600    Uiso  0.408000 H
   H22C       1.0     0.991100     0.820700     0.009400    Uiso  0.408000 H
   H22C       1.0     0.008900     0.320700     0.509400    Uiso  0.408000 H
   H22C       1.0     0.991100     0.679300     0.490600    Uiso  0.408000 H
   H22C       1.0     0.491100     0.179300     0.509400    Uiso  0.408000 H
   H22C       1.0     0.508900     0.820700     0.490600    Uiso  0.408000 H
   C15        1.0     0.5596(8)    0.4482(4)    0.0811(4)   Uani  0.270333 C
   C15        1.0     0.4404(8)    0.5518(4)    0.9189(4)   Uani  0.270333 C
   C15        1.0     0.9404(8)    0.0518(4)    0.0811(4)   Uani  0.270333 C
   C15        1.0     0.0596(8)    0.9482(4)    0.9189(4)   Uani  0.270333 C
   C15        1.0     0.9404(8)    0.4482(4)    0.4189(4)   Uani  0.270333 C
   C15        1.0     0.0596(8)    0.5518(4)    0.5811(4)   Uani  0.270333 C
   C15        1.0     0.5596(8)    0.0518(4)    0.4189(4)   Uani  0.270333 C
   C15        1.0     0.4404(8)    0.9482(4)    0.5811(4)   Uani  0.270333 C
   H15A       1.0     0.514700     0.463700     0.101100    Uiso  0.405000 H
   H15A       1.0     0.485300     0.536300     0.898900    Uiso  0.405000 H
   H15A       1.0     0.985300     0.036300     0.101100    Uiso  0.405000 H
   H15A       1.0     0.014700     0.963700     0.898900    Uiso  0.405000 H
   H15A       1.0     0.985300     0.463700     0.398900    Uiso  0.405000 H
   H15A       1.0     0.014700     0.536300     0.601100    Uiso  0.405000 H
   H15A       1.0     0.514700     0.036300     0.398900    Uiso  0.405000 H
   H15A       1.0     0.485300     0.963700     0.601100    Uiso  0.405000 H
   H15B       1.0     0.605400     0.466600     0.063700    Uiso  0.405000 H
   H15B       1.0     0.394600     0.533400     0.936300    Uiso  0.405000 H
   H15B       1.0     0.894600     0.033400     0.063700    Uiso  0.405000 H
   H15B       1.0     0.105400     0.966600     0.936300    Uiso  0.405000 H
   H15B       1.0     0.894600     0.466600     0.436300    Uiso  0.405000 H
   H15B       1.0     0.105400     0.533400     0.563700    Uiso  0.405000 H
   H15B       1.0     0.605400     0.033400     0.436300    Uiso  0.405000 H
   H15B       1.0     0.394600     0.966600     0.563700    Uiso  0.405000 H
   H15C       1.0     0.620700     0.430100     0.093600    Uiso  0.405000 H
   H15C       1.0     0.379300     0.569900     0.906400    Uiso  0.405000 H
   H15C       1.0     0.879300     0.069900     0.093600    Uiso  0.405000 H
   H15C       1.0     0.120700     0.930100     0.906400    Uiso  0.405000 H
   H15C       1.0     0.879300     0.430100     0.406400    Uiso  0.405000 H
   H15C       1.0     0.120700     0.569900     0.593600    Uiso  0.405000 H
   H15C       1.0     0.620700     0.069900     0.406400    Uiso  0.405000 H
   H15C       1.0     0.379300     0.930100     0.593600    Uiso  0.405000 H
   C28        1.0     0.7383(8)    0.3544(4)    0.1426(4)   Uani  0.308667 C
   C28        1.0     0.2617(8)    0.6456(4)    0.8574(4)   Uani  0.308667 C
   C28        1.0     0.7617(8)    0.1456(4)    0.1426(4)   Uani  0.308667 C
   C28        1.0     0.2383(8)    0.8544(4)    0.8574(4)   Uani  0.308667 C
   C28        1.0     0.7617(8)    0.3544(4)    0.3574(4)   Uani  0.308667 C
   C28        1.0     0.2383(8)    0.6456(4)    0.6426(4)   Uani  0.308667 C
   C28        1.0     0.7383(8)    0.1456(4)    0.3574(4)   Uani  0.308667 C
   C28        1.0     0.2617(8)    0.8544(4)    0.6426(4)   Uani  0.308667 C
   H28A       1.0     0.786500     0.342200     0.121200    Uiso  0.462000 H
   H28A       1.0     0.213500     0.657800     0.878800    Uiso  0.462000 H
   H28A       1.0     0.713500     0.157800     0.121200    Uiso  0.462000 H
   H28A       1.0     0.286500     0.842200     0.878800    Uiso  0.462000 H
   H28A       1.0     0.713500     0.342200     0.378800    Uiso  0.462000 H
   H28A       1.0     0.286500     0.657800     0.621200    Uiso  0.462000 H
   H28A       1.0     0.786500     0.157800     0.378800    Uiso  0.462000 H
   H28A       1.0     0.213500     0.842200     0.621200    Uiso  0.462000 H
   H28B       1.0     0.791200     0.354700     0.166100    Uiso  0.462000 H
   H28B       1.0     0.208800     0.645300     0.833900    Uiso  0.462000 H
   H28B       1.0     0.708800     0.145300     0.166100    Uiso  0.462000 H
   H28B       1.0     0.291200     0.854700     0.833900    Uiso  0.462000 H
   H28B       1.0     0.708800     0.354700     0.333900    Uiso  0.462000 H
   H28B       1.0     0.291200     0.645300     0.666100    Uiso  0.462000 H
   H28B       1.0     0.791200     0.145300     0.333900    Uiso  0.462000 H
   H28B       1.0     0.208800     0.854700     0.666100    Uiso  0.462000 H
   H28C       1.0     0.714900     0.381900     0.135700    Uiso  0.462000 H
   H28C       1.0     0.285100     0.618100     0.864300    Uiso  0.462000 H
   H28C       1.0     0.785100     0.118100     0.135700    Uiso  0.462000 H
   H28C       1.0     0.214900     0.881900     0.864300    Uiso  0.462000 H
   H28C       1.0     0.785100     0.381900     0.364300    Uiso  0.462000 H
   H28C       1.0     0.214900     0.618100     0.635700    Uiso  0.462000 H
   H28C       1.0     0.714900     0.118100     0.364300    Uiso  0.462000 H
   H28C       1.0     0.285100     0.881900     0.635700    Uiso  0.462000 H
   C35        1.0     0.5784(8)    0.5123(5)    0.1715(4)   Uani  0.336333 C
   C35        1.0     0.4216(8)    0.4877(5)    0.8285(4)   Uani  0.336333 C
   C35        1.0     0.9216(8)    0.9877(5)    0.1715(4)   Uani  0.336333 C
   C35        1.0     0.0784(8)    0.0123(5)    0.8285(4)   Uani  0.336333 C
   C35        1.0     0.9216(8)    0.5123(5)    0.3285(4)   Uani  0.336333 C
   C35        1.0     0.0784(8)    0.4877(5)    0.6715(4)   Uani  0.336333 C
   C35        1.0     0.5784(8)    0.9877(5)    0.3285(4)   Uani  0.336333 C
   C35        1.0     0.4216(8)    0.0123(5)    0.6715(4)   Uani  0.336333 C
   H35A       1.0     0.511000     0.532500     0.174400    Uiso  0.504000 H
   H35A       1.0     0.489000     0.467500     0.825600    Uiso  0.504000 H
   H35A       1.0     0.989000     0.967500     0.174400    Uiso  0.504000 H
   H35A       1.0     0.011000     0.032500     0.825600    Uiso  0.504000 H
   H35A       1.0     0.989000     0.532500     0.325600    Uiso  0.504000 H
   H35A       1.0     0.011000     0.467500     0.674400    Uiso  0.504000 H
   H35A       1.0     0.511000     0.967500     0.325600    Uiso  0.504000 H
   H35A       1.0     0.489000     0.032500     0.674400    Uiso  0.504000 H
   H35B       1.0     0.546700     0.486300     0.180400    Uiso  0.504000 H
   H35B       1.0     0.453300     0.513700     0.819600    Uiso  0.504000 H
   H35B       1.0     0.953300     0.013700     0.180400    Uiso  0.504000 H
   H35B       1.0     0.046700     0.986300     0.819600    Uiso  0.504000 H
   H35B       1.0     0.953300     0.486300     0.319600    Uiso  0.504000 H
   H35B       1.0     0.046700     0.513700     0.680400    Uiso  0.504000 H
   H35B       1.0     0.546700     0.013700     0.319600    Uiso  0.504000 H
   H35B       1.0     0.453300     0.986300     0.680400    Uiso  0.504000 H
   H35C       1.0     0.603200     0.510500     0.144100    Uiso  0.504000 H
   H35C       1.0     0.396800     0.489500     0.855900    Uiso  0.504000 H
   H35C       1.0     0.896800     0.989500     0.144100    Uiso  0.504000 H
   H35C       1.0     0.103200     0.010500     0.855900    Uiso  0.504000 H
   H35C       1.0     0.896800     0.510500     0.355900    Uiso  0.504000 H
   H35C       1.0     0.103200     0.489500     0.644100    Uiso  0.504000 H
   H35C       1.0     0.603200     0.989500     0.355900    Uiso  0.504000 H
   H35C       1.0     0.396800     0.010500     0.644100    Uiso  0.504000 H
   C29        1.0     0.0637(8)    0.4086(4)    0.2692(4)   Uani  0.249667 C
   C29        1.0     0.9363(8)    0.5914(4)    0.7308(4)   Uani  0.249667 C
   C29        1.0     0.4363(8)    0.0914(4)    0.2692(4)   Uani  0.249667 C
   C29        1.0     0.5637(8)    0.9086(4)    0.7308(4)   Uani  0.249667 C
   C29        1.0     0.4363(8)    0.4086(4)    0.2308(4)   Uani  0.249667 C
   C29        1.0     0.5637(8)    0.5914(4)    0.7692(4)   Uani  0.249667 C
   C29        1.0     0.0637(8)    0.0914(4)    0.2308(4)   Uani  0.249667 C
   C29        1.0     0.9363(8)    0.9086(4)    0.7692(4)   Uani  0.249667 C
   H29A       1.0     0.140400     0.404600     0.253300    Uiso  0.374000 H
   H29A       1.0     0.859600     0.595400     0.746700    Uiso  0.374000 H
   H29A       1.0     0.359600     0.095400     0.253300    Uiso  0.374000 H
   H29A       1.0     0.640400     0.904600     0.746700    Uiso  0.374000 H
   H29A       1.0     0.359600     0.404600     0.246700    Uiso  0.374000 H
   H29A       1.0     0.640400     0.595400     0.753300    Uiso  0.374000 H
   H29A       1.0     0.140400     0.095400     0.246700    Uiso  0.374000 H
   H29A       1.0     0.859600     0.904600     0.753300    Uiso  0.374000 H
   H29B       1.0     0.068600     0.391800     0.292500    Uiso  0.374000 H
   H29B       1.0     0.931400     0.608200     0.707500    Uiso  0.374000 H
   H29B       1.0     0.431400     0.108200     0.292500    Uiso  0.374000 H
   H29B       1.0     0.568600     0.891800     0.707500    Uiso  0.374000 H
   H29B       1.0     0.431400     0.391800     0.207500    Uiso  0.374000 H
   H29B       1.0     0.568600     0.608200     0.792500    Uiso  0.374000 H
   H29B       1.0     0.068600     0.108200     0.207500    Uiso  0.374000 H
   H29B       1.0     0.931400     0.891800     0.792500    Uiso  0.374000 H
   H29C       1.0     0.057600     0.436900     0.276800    Uiso  0.374000 H
   H29C       1.0     0.942400     0.563100     0.723200    Uiso  0.374000 H
   H29C       1.0     0.442400     0.063100     0.276800    Uiso  0.374000 H
   H29C       1.0     0.557600     0.936900     0.723200    Uiso  0.374000 H
   H29C       1.0     0.442400     0.436900     0.223200    Uiso  0.374000 H
   H29C       1.0     0.557600     0.563100     0.776800    Uiso  0.374000 H
   H29C       1.0     0.057600     0.063100     0.223200    Uiso  0.374000 H
   H29C       1.0     0.942400     0.936900     0.776800    Uiso  0.374000 H
   C8         1.0     0.4296(7)    0.5631(7)    0.0650(4)   Uani  0.316667 C
   C8         1.0     0.5704(7)    0.4369(7)    0.9350(4)   Uani  0.316667 C
   C8         1.0     0.0704(7)    0.9369(7)    0.0650(4)   Uani  0.316667 C
   C8         1.0     0.9296(7)    0.0631(7)    0.9350(4)   Uani  0.316667 C
   C8         1.0     0.0704(7)    0.5631(7)    0.4350(4)   Uani  0.316667 C
   C8         1.0     0.9296(7)    0.4369(7)    0.5650(4)   Uani  0.316667 C
   C8         1.0     0.4296(7)    0.9369(7)    0.4350(4)   Uani  0.316667 C
   C8         1.0     0.5704(7)    0.0631(7)    0.5650(4)   Uani  0.316667 C
   H8A        1.0     0.420100     0.590500     0.074700    Uiso  0.475000 H
   H8A        1.0     0.579900     0.409500     0.925300    Uiso  0.475000 H
   H8A        1.0     0.079900     0.909500     0.074700    Uiso  0.475000 H
   H8A        1.0     0.920100     0.090500     0.925300    Uiso  0.475000 H
   H8A        1.0     0.079900     0.590500     0.425300    Uiso  0.475000 H
   H8A        1.0     0.920100     0.409500     0.574700    Uiso  0.475000 H
   H8A        1.0     0.420100     0.909500     0.425300    Uiso  0.475000 H
   H8A        1.0     0.579900     0.090500     0.574700    Uiso  0.475000 H
   H8B        1.0     0.511100     0.560500     0.051200    Uiso  0.475000 H
   H8B        1.0     0.488900     0.439500     0.948800    Uiso  0.475000 H
   H8B        1.0     0.988900     0.939500     0.051200    Uiso  0.475000 H
   H8B        1.0     0.011100     0.060500     0.948800    Uiso  0.475000 H
   H8B        1.0     0.988900     0.560500     0.448800    Uiso  0.475000 H
   H8B        1.0     0.011100     0.439500     0.551200    Uiso  0.475000 H
   H8B        1.0     0.511100     0.939500     0.448800    Uiso  0.475000 H
   H8B        1.0     0.488900     0.060500     0.551200    Uiso  0.475000 H
   H8C        1.0     0.427800     0.544300     0.086900    Uiso  0.475000 H
   H8C        1.0     0.572200     0.455700     0.913100    Uiso  0.475000 H
   H8C        1.0     0.072200     0.955700     0.086900    Uiso  0.475000 H
   H8C        1.0     0.927800     0.044300     0.913100    Uiso  0.475000 H
   H8C        1.0     0.072200     0.544300     0.413100    Uiso  0.475000 H
   H8C        1.0     0.927800     0.455700     0.586900    Uiso  0.475000 H
   H8C        1.0     0.427800     0.955700     0.413100    Uiso  0.475000 H
   H8C        1.0     0.572200     0.044300     0.586900    Uiso  0.475000 H
   N2         1.0     0.1146(8)    0.68786(17)  0.0038(2)   Uani  0.130667 N
   N2         1.0     0.8854(8)    0.31214(17)  0.9962(2)   Uani  0.130667 N
   N2         1.0     0.3854(8)    0.81214(17)  0.0038(2)   Uani  0.130667 N
   N2         1.0     0.6146(8)    0.18786(17)  0.9962(2)   Uani  0.130667 N
   N2         1.0     0.3854(8)    0.68786(17)  0.4962(2)   Uani  0.130667 N
   N2         1.0     0.6146(8)    0.31214(17)  0.5038(2)   Uani  0.130667 N
   N2         1.0     0.1146(8)    0.81214(17)  0.4962(2)   Uani  0.130667 N
   N2         1.0     0.8854(8)    0.18786(17)  0.5038(2)   Uani  0.130667 N
   C5         1.0     0.0758(8)    0.6480(2)    0.00833(18) Uani  0.112333 C
   C5         1.0     0.9242(8)    0.3520(2)    0.99167(18) Uani  0.112333 C
   C5         1.0     0.4242(8)    0.8520(2)    0.00833(18) Uani  0.112333 C
   C5         1.0     0.5758(8)    0.1480(2)    0.99167(18) Uani  0.112333 C
   C5         1.0     0.4242(8)    0.6480(2)    0.49167(18) Uani  0.112333 C
   C5         1.0     0.5758(8)    0.3520(2)    0.50833(18) Uani  0.112333 C
   C5         1.0     0.0758(8)    0.8520(2)    0.49167(18) Uani  0.112333 C
   C5         1.0     0.9242(8)    0.1480(2)    0.50833(18) Uani  0.112333 C
   C3         1.0     0.1871(10)   0.6635(4)    0.0616(2)   Uani  0.165000 C
   C3         1.0     0.8129(10)   0.3365(4)    0.9384(2)   Uani  0.165000 C
   C3         1.0     0.3129(10)   0.8365(4)    0.0616(2)   Uani  0.165000 C
   C3         1.0     0.6871(10)   0.1635(4)    0.9384(2)   Uani  0.165000 C
   C3         1.0     0.3129(10)   0.6635(4)    0.4384(2)   Uani  0.165000 C
   C3         1.0     0.6871(10)   0.3365(4)    0.5616(2)   Uani  0.165000 C
   C3         1.0     0.1871(10)   0.8365(4)    0.4384(2)   Uani  0.165000 C
   C3         1.0     0.8129(10)   0.1635(4)    0.5616(2)   Uani  0.165000 C
   C6         1.0     0.0041(7)    0.6263(4)    0.9738(2)   Uani  0.143333 C
   C6         1.0     0.9959(7)    0.3737(4)    0.0262(2)   Uani  0.143333 C
   C6         1.0     0.4959(7)    0.8737(4)    0.9738(2)   Uani  0.143333 C
   C6         1.0     0.5041(7)    0.1263(4)    0.0262(2)   Uani  0.143333 C
   C6         1.0     0.4959(7)    0.6263(4)    0.5262(2)   Uani  0.143333 C
   C6         1.0     0.5041(7)    0.3737(4)    0.4738(2)   Uani  0.143333 C
   C6         1.0     0.0041(7)    0.8737(4)    0.5262(2)   Uani  0.143333 C
   C6         1.0     0.9959(7)    0.1263(4)    0.4738(2)   Uani  0.143333 C
   H6A        1.0     0.943000     0.645100     0.961600    Uiso  0.172000 H
   H6A        1.0     0.057000     0.354900     0.038400    Uiso  0.172000 H
   H6A        1.0     0.557000     0.854900     0.961600    Uiso  0.172000 H
   H6A        1.0     0.443000     0.145100     0.038400    Uiso  0.172000 H
   H6A        1.0     0.557000     0.645100     0.538400    Uiso  0.172000 H
   H6A        1.0     0.443000     0.354900     0.461600    Uiso  0.172000 H
   H6A        1.0     0.943000     0.854900     0.538400    Uiso  0.172000 H
   H6A        1.0     0.057000     0.145100     0.461600    Uiso  0.172000 H
   H6B        1.0     0.955000     0.603200     0.984200    Uiso  0.172000 H
   H6B        1.0     0.045000     0.396800     0.015800    Uiso  0.172000 H
   H6B        1.0     0.545000     0.896800     0.984200    Uiso  0.172000 H
   H6B        1.0     0.455000     0.103200     0.015800    Uiso  0.172000 H
   H6B        1.0     0.545000     0.603200     0.515800    Uiso  0.172000 H
   H6B        1.0     0.455000     0.396800     0.484200    Uiso  0.172000 H
   H6B        1.0     0.955000     0.896800     0.515800    Uiso  0.172000 H
   H6B        1.0     0.045000     0.103200     0.484200    Uiso  0.172000 H
   C2         1.0     0.2815(9)    0.6641(4)    0.0986(2)   Uani  0.233000 C
   C2         1.0     0.7185(9)    0.3359(4)    0.9014(2)   Uani  0.233000 C
   C2         1.0     0.2185(9)    0.8359(4)    0.0986(2)   Uani  0.233000 C
   C2         1.0     0.7815(9)    0.1641(4)    0.9014(2)   Uani  0.233000 C
   C2         1.0     0.2185(9)    0.6641(4)    0.4014(2)   Uani  0.233000 C
   C2         1.0     0.7815(9)    0.3359(4)    0.5986(2)   Uani  0.233000 C
   C2         1.0     0.2815(9)    0.8359(4)    0.4014(2)   Uani  0.233000 C
   C2         1.0     0.7185(9)    0.1641(4)    0.5986(2)   Uani  0.233000 C
   H2A        1.0     0.314600     0.636900     0.103900    Uiso  0.279000 H
   H2A        1.0     0.685400     0.363100     0.896100    Uiso  0.279000 H
   H2A        1.0     0.185400     0.863100     0.103900    Uiso  0.279000 H
   H2A        1.0     0.814600     0.136900     0.896100    Uiso  0.279000 H
   H2A        1.0     0.185400     0.636900     0.396100    Uiso  0.279000 H
   H2A        1.0     0.814600     0.363100     0.603900    Uiso  0.279000 H
   H2A        1.0     0.314600     0.863100     0.396100    Uiso  0.279000 H
   H2A        1.0     0.685400     0.136900     0.603900    Uiso  0.279000 H
   H2B        1.0     0.354800     0.682100     0.093600    Uiso  0.279000 H
   H2B        1.0     0.645200     0.317900     0.906400    Uiso  0.279000 H
   H2B        1.0     0.145200     0.817900     0.093600    Uiso  0.279000 H
   H2B        1.0     0.854800     0.182100     0.906400    Uiso  0.279000 H
   H2B        1.0     0.145200     0.682100     0.406400    Uiso  0.279000 H
   H2B        1.0     0.854800     0.317900     0.593600    Uiso  0.279000 H
   H2B        1.0     0.354800     0.817900     0.406400    Uiso  0.279000 H
   H2B        1.0     0.645200     0.182100     0.593600    Uiso  0.279000 H
   C13        1.0     0.8577(8)    0.5937(4)    0.0867(4)   Uani  0.210000 C
   C13        1.0     0.1423(8)    0.4063(4)    0.9133(4)   Uani  0.210000 C
   C13        1.0     0.6423(8)    0.9063(4)    0.0867(4)   Uani  0.210000 C
   C13        1.0     0.3577(8)    0.0937(4)    0.9133(4)   Uani  0.210000 C
   C13        1.0     0.6423(8)    0.5937(4)    0.4133(4)   Uani  0.210000 C
   C13        1.0     0.3577(8)    0.4063(4)    0.5867(4)   Uani  0.210000 C
   C13        1.0     0.8577(8)    0.9063(4)    0.4133(4)   Uani  0.210000 C
   C13        1.0     0.1423(8)    0.0937(4)    0.5867(4)   Uani  0.210000 C
   H13A       1.0     0.835200     0.610100     0.063700    Uiso  0.252000 H
   H13A       1.0     0.164800     0.389900     0.936300    Uiso  0.252000 H
   H13A       1.0     0.664800     0.889900     0.063700    Uiso  0.252000 H
   H13A       1.0     0.335200     0.110100     0.936300    Uiso  0.252000 H
   H13A       1.0     0.664800     0.610100     0.436300    Uiso  0.252000 H
   H13A       1.0     0.335200     0.389900     0.563700    Uiso  0.252000 H
   H13A       1.0     0.835200     0.889900     0.436300    Uiso  0.252000 H
   H13A       1.0     0.164800     0.110100     0.563700    Uiso  0.252000 H
   H13B       1.0     0.797900     0.570700     0.088100    Uiso  0.252000 H
   H13B       1.0     0.202100     0.429300     0.911900    Uiso  0.252000 H
   H13B       1.0     0.702100     0.929300     0.088100    Uiso  0.252000 H
   H13B       1.0     0.297900     0.070700     0.911900    Uiso  0.252000 H
   H13B       1.0     0.702100     0.570700     0.411900    Uiso  0.252000 H
   H13B       1.0     0.297900     0.429300     0.588100    Uiso  0.252000 H
   H13B       1.0     0.797900     0.929300     0.411900    Uiso  0.252000 H
   H13B       1.0     0.202100     0.070700     0.588100    Uiso  0.252000 H
   C7         1.0     0.1028(11)   0.6108(4)    0.9419(4)   Uani  0.250667 C
   C7         1.0     0.8972(11)   0.3892(4)    0.0581(4)   Uani  0.250667 C
   C7         1.0     0.3972(11)   0.8892(4)    0.9419(4)   Uani  0.250667 C
   C7         1.0     0.6028(11)   0.1108(4)    0.0581(4)   Uani  0.250667 C
   C7         1.0     0.3972(11)   0.6108(4)    0.5581(4)   Uani  0.250667 C
   C7         1.0     0.6028(11)   0.3892(4)    0.4419(4)   Uani  0.250667 C
   C7         1.0     0.1028(11)   0.8892(4)    0.5581(4)   Uani  0.250667 C
   C7         1.0     0.8972(11)   0.1108(4)    0.4419(4)   Uani  0.250667 C
   H7A        1.0     0.149600     0.633700     0.931100    Uiso  0.376000 H
   H7A        1.0     0.850400     0.366300     0.068900    Uiso  0.376000 H
   H7A        1.0     0.350400     0.866300     0.931100    Uiso  0.376000 H
   H7A        1.0     0.649600     0.133700     0.068900    Uiso  0.376000 H
   H7A        1.0     0.350400     0.633700     0.568900    Uiso  0.376000 H
   H7A        1.0     0.649600     0.366300     0.431100    Uiso  0.376000 H
   H7A        1.0     0.149600     0.866300     0.568900    Uiso  0.376000 H
   H7A        1.0     0.850400     0.133700     0.431100    Uiso  0.376000 H
   H7B        1.0     0.056400     0.597200     0.921000    Uiso  0.376000 H
   H7B        1.0     0.943600     0.402800     0.079000    Uiso  0.376000 H
   H7B        1.0     0.443600     0.902800     0.921000    Uiso  0.376000 H
   H7B        1.0     0.556400     0.097200     0.079000    Uiso  0.376000 H
   H7B        1.0     0.443600     0.597200     0.579000    Uiso  0.376000 H
   H7B        1.0     0.556400     0.402800     0.421000    Uiso  0.376000 H
   H7B        1.0     0.056400     0.902800     0.579000    Uiso  0.376000 H
   H7B        1.0     0.943600     0.097200     0.421000    Uiso  0.376000 H
   H7C        1.0     0.163000     0.592100     0.953900    Uiso  0.376000 H
   H7C        1.0     0.837000     0.407900     0.046100    Uiso  0.376000 H
   H7C        1.0     0.337000     0.907900     0.953900    Uiso  0.376000 H
   H7C        1.0     0.663000     0.092100     0.046100    Uiso  0.376000 H
   H7C        1.0     0.337000     0.592100     0.546100    Uiso  0.376000 H
   H7C        1.0     0.663000     0.407900     0.453900    Uiso  0.376000 H
   H7C        1.0     0.163000     0.907900     0.546100    Uiso  0.376000 H
   H7C        1.0     0.837000     0.092100     0.453900    Uiso  0.376000 H
   N1         1.0     0.1772(11)   0.69792(18)  0.0372(4)   Uani  0.161000 N
   N1         1.0     0.8228(11)   0.30208(18)  0.9628(4)   Uani  0.161000 N
   N1         1.0     0.3228(11)   0.80208(18)  0.0372(4)   Uani  0.161000 N
   N1         1.0     0.6772(11)   0.19792(18)  0.9628(4)   Uani  0.161000 N
   N1         1.0     0.3228(11)   0.69792(18)  0.4628(4)   Uani  0.161000 N
   N1         1.0     0.6772(11)   0.30208(18)  0.5372(4)   Uani  0.161000 N
   N1         1.0     0.1772(11)   0.80208(18)  0.4628(4)   Uani  0.161000 N
   N1         1.0     0.8228(11)   0.19792(18)  0.5372(4)   Uani  0.161000 N
   C1         1.0     0.2018(16)   0.6799(7)    0.1350(2)   Uani  0.385000 C
   C1         1.0     0.7982(16)   0.3201(7)    0.8650(2)   Uani  0.385000 C
   C1         1.0     0.2982(16)   0.8201(7)    0.1350(2)   Uani  0.385000 C
   C1         1.0     0.7018(16)   0.1799(7)    0.8650(2)   Uani  0.385000 C
   C1         1.0     0.2982(16)   0.6799(7)    0.3650(2)   Uani  0.385000 C
   C1         1.0     0.7018(16)   0.3201(7)    0.6350(2)   Uani  0.385000 C
   C1         1.0     0.2018(16)   0.8201(7)    0.3650(2)   Uani  0.385000 C
   C1         1.0     0.7982(16)   0.1799(7)    0.6350(2)   Uani  0.385000 C
   H1A        1.0     0.188000     0.708900     0.132500    Uiso  0.577000 H
   H1A        1.0     0.812000     0.291100     0.867500    Uiso  0.577000 H
   H1A        1.0     0.312000     0.791100     0.132500    Uiso  0.577000 H
   H1A        1.0     0.688000     0.208900     0.867500    Uiso  0.577000 H
   H1A        1.0     0.312000     0.708900     0.367500    Uiso  0.577000 H
   H1A        1.0     0.688000     0.291100     0.632500    Uiso  0.577000 H
   H1A        1.0     0.188000     0.791100     0.367500    Uiso  0.577000 H
   H1A        1.0     0.812000     0.208900     0.632500    Uiso  0.577000 H
   H1B        1.0     0.249300     0.674500     0.159000    Uiso  0.577000 H
   H1B        1.0     0.750700     0.325500     0.841000    Uiso  0.577000 H
   H1B        1.0     0.250700     0.825500     0.159000    Uiso  0.577000 H
   H1B        1.0     0.749300     0.174500     0.841000    Uiso  0.577000 H
   H1B        1.0     0.250700     0.674500     0.341000    Uiso  0.577000 H
   H1B        1.0     0.749300     0.325500     0.659000    Uiso  0.577000 H
   H1B        1.0     0.249300     0.825500     0.341000    Uiso  0.577000 H
   H1B        1.0     0.750700     0.174500     0.659000    Uiso  0.577000 H
   H1C        1.0     0.119200     0.666200     0.136000    Uiso  0.577000 H
   H1C        1.0     0.880800     0.333800     0.864000    Uiso  0.577000 H
   H1C        1.0     0.380800     0.833800     0.136000    Uiso  0.577000 H
   H1C        1.0     0.619200     0.166200     0.864000    Uiso  0.577000 H
   H1C        1.0     0.380800     0.666200     0.364000    Uiso  0.577000 H
   H1C        1.0     0.619200     0.333800     0.636000    Uiso  0.577000 H
   H1C        1.0     0.119200     0.833800     0.364000    Uiso  0.577000 H
   H1C        1.0     0.880800     0.166200     0.636000    Uiso  0.577000 H
   Cu6        1.0     0.250000     0.750000     0.04086(7)  Uani  0.171400 Cu
   Cu6        1.0     0.750000     0.250000     0.95914(7)  Uani  0.171400 Cu
   Cu6        1.0     0.250000     0.750000     0.45914(7)  Uani  0.171400 Cu
   Cu6        1.0     0.750000     0.250000     0.54086(7)  Uani  0.171400 Cu

loop_
   _atom_site_aniso_label
   _atom_site_aniso_U_11
   _atom_site_aniso_U_22
   _atom_site_aniso_U_33
   _atom_site_aniso_U_12
   _atom_site_aniso_U_13
   _atom_site_aniso_U_23
   Cu1	 0.12490  0.08600  0.12860  0.02530  0.04600  0.01640
   Cu1	 0.12490  0.08600  0.12860  0.02530  0.04600  0.01640
   Cu1	 0.12490  0.08600  0.12860  0.02530 -0.04600 -0.01640
   Cu1	 0.12490  0.08600  0.12860  0.02530 -0.04600 -0.01640
   Cu1	 0.12490  0.08600  0.12860 -0.02530  0.04600 -0.01640
   Cu1	 0.12490  0.08600  0.12860 -0.02530  0.04600 -0.01640
   Cu1	 0.12490  0.08600  0.12860 -0.02530 -0.04600  0.01640
   Cu1	 0.12490  0.08600  0.12860 -0.02530 -0.04600  0.01640
   Cu5	 0.15190  0.07560  0.16860  0.03520 -0.02200 -0.03820
   Cu5	 0.15190  0.07560  0.16860  0.03520 -0.02200 -0.03820
   Cu5	 0.15190  0.07560  0.16860  0.03520  0.02200  0.03820
   Cu5	 0.15190  0.07560  0.16860  0.03520  0.02200  0.03820
   Cu5	 0.15190  0.07560  0.16860 -0.03520 -0.02200  0.03820
   Cu5	 0.15190  0.07560  0.16860 -0.03520 -0.02200  0.03820
   Cu5	 0.15190  0.07560  0.16860 -0.03520  0.02200 -0.03820
   Cu5	 0.15190  0.07560  0.16860 -0.03520  0.02200 -0.03820
   Cu4	 0.12460  0.08250  0.14150  0.03900  0.00000  0.00000
   Cu4	 0.12460  0.08250  0.14150  0.03900  0.00000  0.00000
   Cu4	 0.12460  0.08250  0.14150 -0.03900  0.00000  0.00000
   Cu4	 0.12460  0.08250  0.14150 -0.03900  0.00000  0.00000
   Cu2	 0.14600  0.06940  0.14830  0.03460  0.05870  0.02330
   Cu2	 0.14600  0.06940  0.14830  0.03460  0.05870  0.02330
   Cu2	 0.14600  0.06940  0.14830  0.03460 -0.05870 -0.02330
   Cu2	 0.14600  0.06940  0.14830  0.03460 -0.05870 -0.02330
   Cu2	 0.14600  0.06940  0.14830 -0.03460  0.05870 -0.02330
   Cu2	 0.14600  0.06940  0.14830 -0.03460  0.05870 -0.02330
   Cu2	 0.14600  0.06940  0.14830 -0.03460 -0.05870  0.02330
   Cu2	 0.14600  0.06940  0.14830 -0.03460 -0.05870  0.02330
   Cu3	 0.17140  0.10720  0.17360  0.05180  0.08490  0.04900
   Cu3	 0.17140  0.10720  0.17360  0.05180  0.08490  0.04900
   Cu3	 0.17140  0.10720  0.17360  0.05180 -0.08490 -0.04900
   Cu3	 0.17140  0.10720  0.17360  0.05180 -0.08490 -0.04900
   Cu3	 0.17140  0.10720  0.17360 -0.05180  0.08490 -0.04900
   Cu3	 0.17140  0.10720  0.17360 -0.05180  0.08490 -0.04900
   Cu3	 0.17140  0.10720  0.17360 -0.05180 -0.08490  0.04900
   Cu3	 0.17140  0.10720  0.17360 -0.05180 -0.08490  0.04900
   C25	 0.11300  0.06700  0.13000  0.03500 -0.00100 -0.02000
   C25	 0.11300  0.06700  0.13000  0.03500 -0.00100 -0.02000
   C25	 0.11300  0.06700  0.13000  0.03500  0.00100  0.02000
   C25	 0.11300  0.06700  0.13000  0.03500  0.00100  0.02000
   C25	 0.11300  0.06700  0.13000 -0.03500 -0.00100  0.02000
   C25	 0.11300  0.06700  0.13000 -0.03500 -0.00100  0.02000
   C25	 0.11300  0.06700  0.13000 -0.03500  0.00100 -0.02000
   C25	 0.11300  0.06700  0.13000 -0.03500  0.00100 -0.02000
   C18	 0.10600  0.06300  0.12800  0.02800  0.01200 -0.00900
   C18	 0.10600  0.06300  0.12800  0.02800  0.01200 -0.00900
   C18	 0.10600  0.06300  0.12800  0.02800 -0.01200  0.00900
   C18	 0.10600  0.06300  0.12800  0.02800 -0.01200  0.00900
   C18	 0.10600  0.06300  0.12800 -0.02800  0.01200  0.00900
   C18	 0.10600  0.06300  0.12800 -0.02800  0.01200  0.00900
   C18	 0.10600  0.06300  0.12800 -0.02800 -0.01200 -0.00900
   C18	 0.10600  0.06300  0.12800 -0.02800 -0.01200 -0.00900
   N6	 0.12200  0.07400  0.11800  0.02500  0.03800  0.01100
   N6	 0.12200  0.07400  0.11800  0.02500  0.03800  0.01100
   N6	 0.12200  0.07400  0.11800  0.02500 -0.03800 -0.01100
   N6	 0.12200  0.07400  0.11800  0.02500 -0.03800 -0.01100
   N6	 0.12200  0.07400  0.11800 -0.02500  0.03800 -0.01100
   N6	 0.12200  0.07400  0.11800 -0.02500  0.03800 -0.01100
   N6	 0.12200  0.07400  0.11800 -0.02500 -0.03800  0.01100
   N6	 0.12200  0.07400  0.11800 -0.02500 -0.03800  0.01100
   N5	 0.12600  0.07500  0.15000  0.02000  0.05200  0.01500
   N5	 0.12600  0.07500  0.15000  0.02000  0.05200  0.01500
   N5	 0.12600  0.07500  0.15000  0.02000 -0.05200 -0.01500
   N5	 0.12600  0.07500  0.15000  0.02000 -0.05200 -0.01500
   N5	 0.12600  0.07500  0.15000 -0.02000  0.05200 -0.01500
   N5	 0.12600  0.07500  0.15000 -0.02000  0.05200 -0.01500
   N5	 0.12600  0.07500  0.15000 -0.02000 -0.05200  0.01500
   N5	 0.12600  0.07500  0.15000 -0.02000 -0.05200  0.01500
   N8	 0.12100  0.07500  0.14400  0.03000  0.00300 -0.02100
   N8	 0.12100  0.07500  0.14400  0.03000  0.00300 -0.02100
   N8	 0.12100  0.07500  0.14400  0.03000 -0.00300  0.02100
   N8	 0.12100  0.07500  0.14400  0.03000 -0.00300  0.02100
   N8	 0.12100  0.07500  0.14400 -0.03000  0.00300  0.02100
   N8	 0.12100  0.07500  0.14400 -0.03000  0.00300  0.02100
   N8	 0.12100  0.07500  0.14400 -0.03000 -0.00300 -0.02100
   N8	 0.12100  0.07500  0.14400 -0.03000 -0.00300 -0.02100
   N10	 0.17000  0.11800  0.16200  0.05400  0.08900  0.04200
   N10	 0.17000  0.11800  0.16200  0.05400  0.08900  0.04200
   N10	 0.17000  0.11800  0.16200  0.05400 -0.08900 -0.04200
   N10	 0.17000  0.11800  0.16200  0.05400 -0.08900 -0.04200
   N10	 0.17000  0.11800  0.16200 -0.05400  0.08900 -0.04200
   N10	 0.17000  0.11800  0.16200 -0.05400  0.08900 -0.04200
   N10	 0.17000  0.11800  0.16200 -0.05400 -0.08900  0.04200
   N10	 0.17000  0.11800  0.16200 -0.05400 -0.08900  0.04200
   N3	 0.14200  0.09000  0.15000  0.03200  0.06500  0.04000
   N3	 0.14200  0.09000  0.15000  0.03200  0.06500  0.04000
   N3	 0.14200  0.09000  0.15000  0.03200 -0.06500 -0.04000
   N3	 0.14200  0.09000  0.15000  0.03200 -0.06500 -0.04000
   N3	 0.14200  0.09000  0.15000 -0.03200  0.06500 -0.04000
   N3	 0.14200  0.09000  0.15000 -0.03200  0.06500 -0.04000
   N3	 0.14200  0.09000  0.15000 -0.03200 -0.06500  0.04000
   N3	 0.14200  0.09000  0.15000 -0.03200 -0.06500  0.04000
   C19	 0.11300  0.06900  0.11800  0.01800  0.01100  0.00800
   C19	 0.11300  0.06900  0.11800  0.01800  0.01100  0.00800
   C19	 0.11300  0.06900  0.11800  0.01800 -0.01100 -0.00800
   C19	 0.11300  0.06900  0.11800  0.01800 -0.01100 -0.00800
   C19	 0.11300  0.06900  0.11800 -0.01800  0.01100 -0.00800
   C19	 0.11300  0.06900  0.11800 -0.01800  0.01100 -0.00800
   C19	 0.11300  0.06900  0.11800 -0.01800 -0.01100  0.00800
   C19	 0.11300  0.06900  0.11800 -0.01800 -0.01100  0.00800
   C24	 0.12300  0.09300  0.15500  0.02900  0.00400 -0.01200
   C24	 0.12300  0.09300  0.15500  0.02900  0.00400 -0.01200
   C24	 0.12300  0.09300  0.15500  0.02900 -0.00400  0.01200
   C24	 0.12300  0.09300  0.15500  0.02900 -0.00400  0.01200
   C24	 0.12300  0.09300  0.15500 -0.02900  0.00400  0.01200
   C24	 0.12300  0.09300  0.15500 -0.02900  0.00400  0.01200
   C24	 0.12300  0.09300  0.15500 -0.02900 -0.00400 -0.01200
   C24	 0.12300  0.09300  0.15500 -0.02900 -0.00400 -0.01200
   C32	 0.14700  0.09100  0.13300  0.01500  0.06100  0.01900
   C32	 0.14700  0.09100  0.13300  0.01500  0.06100  0.01900
   C32	 0.14700  0.09100  0.13300  0.01500 -0.06100 -0.01900
   C32	 0.14700  0.09100  0.13300  0.01500 -0.06100 -0.01900
   C32	 0.14700  0.09100  0.13300 -0.01500  0.06100 -0.01900
   C32	 0.14700  0.09100  0.13300 -0.01500  0.06100 -0.01900
   C32	 0.14700  0.09100  0.13300 -0.01500 -0.06100  0.01900
   C32	 0.14700  0.09100  0.13300 -0.01500 -0.06100  0.01900
   C17	 0.11400  0.08900  0.12300  0.02800  0.02800  0.00000
   C17	 0.11400  0.08900  0.12300  0.02800  0.02800  0.00000
   C17	 0.11400  0.08900  0.12300  0.02800 -0.02800  0.00000
   C17	 0.11400  0.08900  0.12300  0.02800 -0.02800  0.00000
   C17	 0.11400  0.08900  0.12300 -0.02800  0.02800  0.00000
   C17	 0.11400  0.08900  0.12300 -0.02800  0.02800  0.00000
   C17	 0.11400  0.08900  0.12300 -0.02800 -0.02800  0.00000
   C17	 0.11400  0.08900  0.12300 -0.02800 -0.02800  0.00000
   C33	 0.14700  0.12000  0.14100  0.01700  0.04600  0.01800
   C33	 0.14700  0.12000  0.14100  0.01700  0.04600  0.01800
   C33	 0.14700  0.12000  0.14100  0.01700 -0.04600 -0.01800
   C33	 0.14700  0.12000  0.14100  0.01700 -0.04600 -0.01800
   C33	 0.14700  0.12000  0.14100 -0.01700  0.04600 -0.01800
   C33	 0.14700  0.12000  0.14100 -0.01700  0.04600 -0.01800
   C33	 0.14700  0.12000  0.14100 -0.01700 -0.04600  0.01800
   C33	 0.14700  0.12000  0.14100 -0.01700 -0.04600  0.01800
   N9	 0.13100  0.10000  0.13600  0.02700  0.05600  0.02800
   N9	 0.13100  0.10000  0.13600  0.02700  0.05600  0.02800
   N9	 0.13100  0.10000  0.13600  0.02700 -0.05600 -0.02800
   N9	 0.13100  0.10000  0.13600  0.02700 -0.05600 -0.02800
   N9	 0.13100  0.10000  0.13600 -0.02700  0.05600 -0.02800
   N9	 0.13100  0.10000  0.13600 -0.02700  0.05600 -0.02800
   N9	 0.13100  0.10000  0.13600 -0.02700 -0.05600  0.02800
   N9	 0.13100  0.10000  0.13600 -0.02700 -0.05600  0.02800
   N7	 0.13000  0.07900  0.18000  0.03100 -0.04000 -0.02400
   N7	 0.13000  0.07900  0.18000  0.03100 -0.04000 -0.02400
   N7	 0.13000  0.07900  0.18000  0.03100  0.04000  0.02400
   N7	 0.13000  0.07900  0.18000  0.03100  0.04000  0.02400
   N7	 0.13000  0.07900  0.18000 -0.03100 -0.04000  0.02400
   N7	 0.13000  0.07900  0.18000 -0.03100 -0.04000  0.02400
   N7	 0.13000  0.07900  0.18000 -0.03100  0.04000 -0.02400
   N7	 0.13000  0.07900  0.18000 -0.03100  0.04000 -0.02400
   N4	 0.17500  0.10400  0.14200  0.06700  0.06700  0.04100
   N4	 0.17500  0.10400  0.14200  0.06700  0.06700  0.04100
   N4	 0.17500  0.10400  0.14200  0.06700 -0.06700 -0.04100
   N4	 0.17500  0.10400  0.14200  0.06700 -0.06700 -0.04100
   N4	 0.17500  0.10400  0.14200 -0.06700  0.06700 -0.04100
   N4	 0.17500  0.10400  0.14200 -0.06700  0.06700 -0.04100
   N4	 0.17500  0.10400  0.14200 -0.06700 -0.06700  0.04100
   N4	 0.17500  0.10400  0.14200 -0.06700 -0.06700  0.04100
   C31	 0.13000  0.10600  0.11700  0.01100  0.03100  0.00800
   C31	 0.13000  0.10600  0.11700  0.01100  0.03100  0.00800
   C31	 0.13000  0.10600  0.11700  0.01100 -0.03100 -0.00800
   C31	 0.13000  0.10600  0.11700  0.01100 -0.03100 -0.00800
   C31	 0.13000  0.10600  0.11700 -0.01100  0.03100 -0.00800
   C31	 0.13000  0.10600  0.11700 -0.01100  0.03100 -0.00800
   C31	 0.13000  0.10600  0.11700 -0.01100 -0.03100  0.00800
   C31	 0.13000  0.10600  0.11700 -0.01100 -0.03100  0.00800
   C26	 0.11900  0.08700  0.13500  0.01900  0.00900 -0.00900
   C26	 0.11900  0.08700  0.13500  0.01900  0.00900 -0.00900
   C26	 0.11900  0.08700  0.13500  0.01900 -0.00900  0.00900
   C26	 0.11900  0.08700  0.13500  0.01900 -0.00900  0.00900
   C26	 0.11900  0.08700  0.13500 -0.01900  0.00900  0.00900
   C26	 0.11900  0.08700  0.13500 -0.01900  0.00900  0.00900
   C26	 0.11900  0.08700  0.13500 -0.01900 -0.00900 -0.00900
   C26	 0.11900  0.08700  0.13500 -0.01900 -0.00900 -0.00900
   C21	 0.21800  0.17000  0.26300 -0.05700 -0.01200  0.04200
   C21	 0.21800  0.17000  0.26300 -0.05700 -0.01200  0.04200
   C21	 0.21800  0.17000  0.26300 -0.05700  0.01200 -0.04200
   C21	 0.21800  0.17000  0.26300 -0.05700  0.01200 -0.04200
   C21	 0.21800  0.17000  0.26300  0.05700 -0.01200 -0.04200
   C21	 0.21800  0.17000  0.26300  0.05700 -0.01200 -0.04200
   C21	 0.21800  0.17000  0.26300  0.05700  0.01200  0.04200
   C21	 0.21800  0.17000  0.26300  0.05700  0.01200  0.04200
   C27	 0.15600  0.14300  0.14000  0.03000  0.01900 -0.03100
   C27	 0.15600  0.14300  0.14000  0.03000  0.01900 -0.03100
   C27	 0.15600  0.14300  0.14000  0.03000 -0.01900  0.03100
   C27	 0.15600  0.14300  0.14000  0.03000 -0.01900  0.03100
   C27	 0.15600  0.14300  0.14000 -0.03000  0.01900  0.03100
   C27	 0.15600  0.14300  0.14000 -0.03000  0.01900  0.03100
   C27	 0.15600  0.14300  0.14000 -0.03000 -0.01900 -0.03100
   C27	 0.15600  0.14300  0.14000 -0.03000 -0.01900 -0.03100
   C20	 0.13000  0.09300  0.14300  0.01500  0.02200  0.02300
   C20	 0.13000  0.09300  0.14300  0.01500  0.02200  0.02300
   C20	 0.13000  0.09300  0.14300  0.01500 -0.02200 -0.02300
   C20	 0.13000  0.09300  0.14300  0.01500 -0.02200 -0.02300
   C20	 0.13000  0.09300  0.14300 -0.01500  0.02200 -0.02300
   C20	 0.13000  0.09300  0.14300 -0.01500  0.02200 -0.02300
   C20	 0.13000  0.09300  0.14300 -0.01500 -0.02200  0.02300
   C20	 0.13000  0.09300  0.14300 -0.01500 -0.02200  0.02300
   C10	 0.15200  0.09900  0.13500  0.02100  0.04200  0.02400
   C10	 0.15200  0.09900  0.13500  0.02100  0.04200  0.02400
   C10	 0.15200  0.09900  0.13500  0.02100 -0.04200 -0.02400
   C10	 0.15200  0.09900  0.13500  0.02100 -0.04200 -0.02400
   C10	 0.15200  0.09900  0.13500 -0.02100  0.04200 -0.02400
   C10	 0.15200  0.09900  0.13500 -0.02100  0.04200 -0.02400
   C10	 0.15200  0.09900  0.13500 -0.02100 -0.04200  0.02400
   C10	 0.15200  0.09900  0.13500 -0.02100 -0.04200  0.02400
   C4	 0.16600  0.07400  0.11800  0.02700  0.01900  0.02200
   C4	 0.16600  0.07400  0.11800  0.02700  0.01900  0.02200
   C4	 0.16600  0.07400  0.11800  0.02700 -0.01900 -0.02200
   C4	 0.16600  0.07400  0.11800  0.02700 -0.01900 -0.02200
   C4	 0.16600  0.07400  0.11800 -0.02700  0.01900 -0.02200
   C4	 0.16600  0.07400  0.11800 -0.02700  0.01900 -0.02200
   C4	 0.16600  0.07400  0.11800 -0.02700 -0.01900  0.02200
   C4	 0.16600  0.07400  0.11800 -0.02700 -0.01900  0.02200
   C12	 0.14700  0.10200  0.15800  0.03100  0.01300  0.03400
   C12	 0.14700  0.10200  0.15800  0.03100  0.01300  0.03400
   C12	 0.14700  0.10200  0.15800  0.03100 -0.01300 -0.03400
   C12	 0.14700  0.10200  0.15800  0.03100 -0.01300 -0.03400
   C12	 0.14700  0.10200  0.15800 -0.03100  0.01300 -0.03400
   C12	 0.14700  0.10200  0.15800 -0.03100  0.01300 -0.03400
   C12	 0.14700  0.10200  0.15800 -0.03100 -0.01300  0.03400
   C12	 0.14700  0.10200  0.15800 -0.03100 -0.01300  0.03400
   C11	 0.19800  0.06000  0.16300  0.04000  0.05800  0.03800
   C11	 0.19800  0.06000  0.16300  0.04000  0.05800  0.03800
   C11	 0.19800  0.06000  0.16300  0.04000 -0.05800 -0.03800
   C11	 0.19800  0.06000  0.16300  0.04000 -0.05800 -0.03800
   C11	 0.19800  0.06000  0.16300 -0.04000  0.05800 -0.03800
   C11	 0.19800  0.06000  0.16300 -0.04000  0.05800 -0.03800
   C11	 0.19800  0.06000  0.16300 -0.04000 -0.05800  0.03800
   C11	 0.19800  0.06000  0.16300 -0.04000 -0.05800  0.03800
   C16	 0.13300  0.11400  0.16100  0.01900  0.05000 -0.00500
   C16	 0.13300  0.11400  0.16100  0.01900  0.05000 -0.00500
   C16	 0.13300  0.11400  0.16100  0.01900 -0.05000  0.00500
   C16	 0.13300  0.11400  0.16100  0.01900 -0.05000  0.00500
   C16	 0.13300  0.11400  0.16100 -0.01900  0.05000  0.00500
   C16	 0.13300  0.11400  0.16100 -0.01900  0.05000  0.00500
   C16	 0.13300  0.11400  0.16100 -0.01900 -0.05000 -0.00500
   C16	 0.13300  0.11400  0.16100 -0.01900 -0.05000 -0.00500
   C14	 0.43100  0.39200  0.39000  0.08500  0.06300 -0.08100
   C14	 0.43100  0.39200  0.39000  0.08500  0.06300 -0.08100
   C14	 0.43100  0.39200  0.39000  0.08500 -0.06300  0.08100
   C14	 0.43100  0.39200  0.39000  0.08500 -0.06300  0.08100
   C14	 0.43100  0.39200  0.39000 -0.08500  0.06300  0.08100
   C14	 0.43100  0.39200  0.39000 -0.08500  0.06300  0.08100
   C14	 0.43100  0.39200  0.39000 -0.08500 -0.06300 -0.08100
   C14	 0.43100  0.39200  0.39000 -0.08500 -0.06300 -0.08100
   C9	 0.15900  0.14900  0.18000  0.01500  0.03600  0.04300
   C9	 0.15900  0.14900  0.18000  0.01500  0.03600  0.04300
   C9	 0.15900  0.14900  0.18000  0.01500 -0.03600 -0.04300
   C9	 0.15900  0.14900  0.18000  0.01500 -0.03600 -0.04300
   C9	 0.15900  0.14900  0.18000 -0.01500  0.03600 -0.04300
   C9	 0.15900  0.14900  0.18000 -0.01500  0.03600 -0.04300
   C9	 0.15900  0.14900  0.18000 -0.01500 -0.03600  0.04300
   C9	 0.15900  0.14900  0.18000 -0.01500 -0.03600  0.04300
   C34	 0.18200  0.18200  0.20500  0.03500  0.03200  0.01000
   C34	 0.18200  0.18200  0.20500  0.03500  0.03200  0.01000
   C34	 0.18200  0.18200  0.20500  0.03500 -0.03200 -0.01000
   C34	 0.18200  0.18200  0.20500  0.03500 -0.03200 -0.01000
   C34	 0.18200  0.18200  0.20500 -0.03500  0.03200 -0.01000
   C34	 0.18200  0.18200  0.20500 -0.03500  0.03200 -0.01000
   C34	 0.18200  0.18200  0.20500 -0.03500 -0.03200  0.01000
   C34	 0.18200  0.18200  0.20500 -0.03500 -0.03200  0.01000
   C23	 0.17000  0.15600  0.18000  0.02900 -0.01600 -0.02300
   C23	 0.17000  0.15600  0.18000  0.02900 -0.01600 -0.02300
   C23	 0.17000  0.15600  0.18000  0.02900  0.01600  0.02300
   C23	 0.17000  0.15600  0.18000  0.02900  0.01600  0.02300
   C23	 0.17000  0.15600  0.18000 -0.02900 -0.01600  0.02300
   C23	 0.17000  0.15600  0.18000 -0.02900 -0.01600  0.02300
   C23	 0.17000  0.15600  0.18000 -0.02900  0.01600 -0.02300
   C23	 0.17000  0.15600  0.18000 -0.02900  0.01600 -0.02300
   C30	 0.15100  0.14700  0.15000  0.02200  0.01900  0.02300
   C30	 0.15100  0.14700  0.15000  0.02200  0.01900  0.02300
   C30	 0.15100  0.14700  0.15000  0.02200 -0.01900 -0.02300
   C30	 0.15100  0.14700  0.15000  0.02200 -0.01900 -0.02300
   C30	 0.15100  0.14700  0.15000 -0.02200  0.01900 -0.02300
   C30	 0.15100  0.14700  0.15000 -0.02200  0.01900 -0.02300
   C30	 0.15100  0.14700  0.15000 -0.02200 -0.01900  0.02300
   C30	 0.15100  0.14700  0.15000 -0.02200 -0.01900  0.02300
   C22	 0.28200  0.31800  0.21700  0.06300 -0.03000  0.02800
   C22	 0.28200  0.31800  0.21700  0.06300 -0.03000  0.02800
   C22	 0.28200  0.31800  0.21700  0.06300  0.03000 -0.02800
   C22	 0.28200  0.31800  0.21700  0.06300  0.03000 -0.02800
   C22	 0.28200  0.31800  0.21700 -0.06300 -0.03000 -0.02800
   C22	 0.28200  0.31800  0.21700 -0.06300 -0.03000 -0.02800
   C22	 0.28200  0.31800  0.21700 -0.06300  0.03000  0.02800
   C22	 0.28200  0.31800  0.21700 -0.06300  0.03000  0.02800
   C15	 0.23000  0.28000  0.30100 -0.06000  0.02900 -0.05100
   C15	 0.23000  0.28000  0.30100 -0.06000  0.02900 -0.05100
   C15	 0.23000  0.28000  0.30100 -0.06000 -0.02900  0.05100
   C15	 0.23000  0.28000  0.30100 -0.06000 -0.02900  0.05100
   C15	 0.23000  0.28000  0.30100  0.06000  0.02900  0.05100
   C15	 0.23000  0.28000  0.30100  0.06000  0.02900  0.05100
   C15	 0.23000  0.28000  0.30100  0.06000 -0.02900 -0.05100
   C15	 0.23000  0.28000  0.30100  0.06000 -0.02900 -0.05100
   C28	 0.28500  0.32200  0.31900 -0.09400 -0.02800 -0.05600
   C28	 0.28500  0.32200  0.31900 -0.09400 -0.02800 -0.05600
   C28	 0.28500  0.32200  0.31900 -0.09400  0.02800  0.05600
   C28	 0.28500  0.32200  0.31900 -0.09400  0.02800  0.05600
   C28	 0.28500  0.32200  0.31900  0.09400 -0.02800  0.05600
   C28	 0.28500  0.32200  0.31900  0.09400 -0.02800  0.05600
   C28	 0.28500  0.32200  0.31900  0.09400  0.02800 -0.05600
   C28	 0.28500  0.32200  0.31900  0.09400  0.02800 -0.05600
   C35	 0.30000  0.36200  0.34700  0.08600 -0.08400  0.00100
   C35	 0.30000  0.36200  0.34700  0.08600 -0.08400  0.00100
   C35	 0.30000  0.36200  0.34700  0.08600  0.08400 -0.00100
   C35	 0.30000  0.36200  0.34700  0.08600  0.08400 -0.00100
   C35	 0.30000  0.36200  0.34700 -0.08600 -0.08400 -0.00100
   C35	 0.30000  0.36200  0.34700 -0.08600 -0.08400 -0.00100
   C35	 0.30000  0.36200  0.34700 -0.08600  0.08400  0.00100
   C35	 0.30000  0.36200  0.34700 -0.08600  0.08400  0.00100
   C29	 0.24600  0.24900  0.25400 -0.03400 -0.06700  0.07500
   C29	 0.24600  0.24900  0.25400 -0.03400 -0.06700  0.07500
   C29	 0.24600  0.24900  0.25400 -0.03400  0.06700 -0.07500
   C29	 0.24600  0.24900  0.25400 -0.03400  0.06700 -0.07500
   C29	 0.24600  0.24900  0.25400  0.03400 -0.06700 -0.07500
   C29	 0.24600  0.24900  0.25400  0.03400 -0.06700 -0.07500
   C29	 0.24600  0.24900  0.25400  0.03400  0.06700  0.07500
   C29	 0.24600  0.24900  0.25400  0.03400  0.06700  0.07500
   C8	 0.25100  0.34300  0.35600 -0.01300 -0.02000 -0.01300
   C8	 0.25100  0.34300  0.35600 -0.01300 -0.02000 -0.01300
   C8	 0.25100  0.34300  0.35600 -0.01300  0.02000  0.01300
   C8	 0.25100  0.34300  0.35600 -0.01300  0.02000  0.01300
   C8	 0.25100  0.34300  0.35600  0.01300 -0.02000  0.01300
   C8	 0.25100  0.34300  0.35600  0.01300 -0.02000  0.01300
   C8	 0.25100  0.34300  0.35600  0.01300  0.02000 -0.01300
   C8	 0.25100  0.34300  0.35600  0.01300  0.02000 -0.01300
   N2	 0.16200  0.06600  0.16400  0.01300 -0.00700  0.00500
   N2	 0.16200  0.06600  0.16400  0.01300 -0.00700  0.00500
   N2	 0.16200  0.06600  0.16400  0.01300  0.00700 -0.00500
   N2	 0.16200  0.06600  0.16400  0.01300  0.00700 -0.00500
   N2	 0.16200  0.06600  0.16400 -0.01300 -0.00700 -0.00500
   N2	 0.16200  0.06600  0.16400 -0.01300 -0.00700 -0.00500
   N2	 0.16200  0.06600  0.16400 -0.01300  0.00700  0.00500
   N2	 0.16200  0.06600  0.16400 -0.01300  0.00700  0.00500
   C5	 0.11700  0.08800  0.13200  0.01600  0.01800  0.02400
   C5	 0.11700  0.08800  0.13200  0.01600  0.01800  0.02400
   C5	 0.11700  0.08800  0.13200  0.01600 -0.01800 -0.02400
   C5	 0.11700  0.08800  0.13200  0.01600 -0.01800 -0.02400
   C5	 0.11700  0.08800  0.13200 -0.01600  0.01800 -0.02400
   C5	 0.11700  0.08800  0.13200 -0.01600  0.01800 -0.02400
   C5	 0.11700  0.08800  0.13200 -0.01600 -0.01800  0.02400
   C5	 0.11700  0.08800  0.13200 -0.01600 -0.01800  0.02400
   C3	 0.18300  0.11600  0.19600  0.01100  0.00500  0.02600
   C3	 0.18300  0.11600  0.19600  0.01100  0.00500  0.02600
   C3	 0.18300  0.11600  0.19600  0.01100 -0.00500 -0.02600
   C3	 0.18300  0.11600  0.19600  0.01100 -0.00500 -0.02600
   C3	 0.18300  0.11600  0.19600 -0.01100  0.00500 -0.02600
   C3	 0.18300  0.11600  0.19600 -0.01100  0.00500 -0.02600
   C3	 0.18300  0.11600  0.19600 -0.01100 -0.00500  0.02600
   C3	 0.18300  0.11600  0.19600 -0.01100 -0.00500  0.02600
   C6	 0.14300  0.12500  0.16200  0.00500 -0.02300  0.03200
   C6	 0.14300  0.12500  0.16200  0.00500 -0.02300  0.03200
   C6	 0.14300  0.12500  0.16200  0.00500  0.02300 -0.03200
   C6	 0.14300  0.12500  0.16200  0.00500  0.02300 -0.03200
   C6	 0.14300  0.12500  0.16200 -0.00500 -0.02300 -0.03200
   C6	 0.14300  0.12500  0.16200 -0.00500 -0.02300 -0.03200
   C6	 0.14300  0.12500  0.16200 -0.00500  0.02300  0.03200
   C6	 0.14300  0.12500  0.16200 -0.00500  0.02300  0.03200
   C2	 0.26600  0.21400  0.21900 -0.00700 -0.01400  0.01600
   C2	 0.26600  0.21400  0.21900 -0.00700 -0.01400  0.01600
   C2	 0.26600  0.21400  0.21900 -0.00700  0.01400 -0.01600
   C2	 0.26600  0.21400  0.21900 -0.00700  0.01400 -0.01600
   C2	 0.26600  0.21400  0.21900  0.00700 -0.01400 -0.01600
   C2	 0.26600  0.21400  0.21900  0.00700 -0.01400 -0.01600
   C2	 0.26600  0.21400  0.21900  0.00700  0.01400  0.01600
   C2	 0.26600  0.21400  0.21900  0.00700  0.01400  0.01600
   C13	 0.21200  0.19000  0.22800  0.03400  0.03600  0.05100
   C13	 0.21200  0.19000  0.22800  0.03400  0.03600  0.05100
   C13	 0.21200  0.19000  0.22800  0.03400 -0.03600 -0.05100
   C13	 0.21200  0.19000  0.22800  0.03400 -0.03600 -0.05100
   C13	 0.21200  0.19000  0.22800 -0.03400  0.03600 -0.05100
   C13	 0.21200  0.19000  0.22800 -0.03400  0.03600 -0.05100
   C13	 0.21200  0.19000  0.22800 -0.03400 -0.03600  0.05100
   C13	 0.21200  0.19000  0.22800 -0.03400 -0.03600  0.05100
   C7	 0.25200  0.29000  0.21000  0.02900 -0.01800 -0.05900
   C7	 0.25200  0.29000  0.21000  0.02900 -0.01800 -0.05900
   C7	 0.25200  0.29000  0.21000  0.02900  0.01800  0.05900
   C7	 0.25200  0.29000  0.21000  0.02900  0.01800  0.05900
   C7	 0.25200  0.29000  0.21000 -0.02900 -0.01800  0.05900
   C7	 0.25200  0.29000  0.21000 -0.02900 -0.01800  0.05900
   C7	 0.25200  0.29000  0.21000 -0.02900  0.01800 -0.05900
   C7	 0.25200  0.29000  0.21000 -0.02900  0.01800 -0.05900
   N1	 0.24600  0.06100  0.17600  0.01900  0.01500  0.02300
   N1	 0.24600  0.06100  0.17600  0.01900  0.01500  0.02300
   N1	 0.24600  0.06100  0.17600  0.01900 -0.01500 -0.02300
   N1	 0.24600  0.06100  0.17600  0.01900 -0.01500 -0.02300
   N1	 0.24600  0.06100  0.17600 -0.01900  0.01500 -0.02300
   N1	 0.24600  0.06100  0.17600 -0.01900  0.01500 -0.02300
   N1	 0.24600  0.06100  0.17600 -0.01900 -0.01500  0.02300
   N1	 0.24600  0.06100  0.17600 -0.01900 -0.01500  0.02300
   C1	 0.42400  0.41900  0.31200  0.02100  0.01800 -0.03900
   C1	 0.42400  0.41900  0.31200  0.02100  0.01800 -0.03900
   C1	 0.42400  0.41900  0.31200  0.02100 -0.01800  0.03900
   C1	 0.42400  0.41900  0.31200  0.02100 -0.01800  0.03900
   C1	 0.42400  0.41900  0.31200 -0.02100  0.01800  0.03900
   C1	 0.42400  0.41900  0.31200 -0.02100  0.01800  0.03900
   C1	 0.42400  0.41900  0.31200 -0.02100 -0.01800 -0.03900
   C1	 0.42400  0.41900  0.31200 -0.02100 -0.01800 -0.03900
   Cu6	 0.27800  0.06640  0.16980  0.01400  0.00000  0.00000
   Cu6	 0.27800  0.06640  0.16980  0.01400  0.00000  0.00000
   Cu6	 0.27800  0.06640  0.16980 -0.01400  0.00000  0.00000
   Cu6	 0.27800  0.06640  0.16980 -0.01400  0.00000  0.00000
