data_image0
_chemical_formula_structural       Cu36C16N40C40N24C24H24C8H16C8H16C40H16C8H24C8H16C8H16C8H16C8H16C8H24C8H24C8H24C8H24C8H24C8H24N8C24H16C8H16C8H16C8H24N8C8H24Cu4HCHCOH4
_chemical_formula_sum              "Cu40 C282 N80 H406 O1"
_cell_length_a       10.28032910609667
_cell_length_b       32.73508532556258
_cell_length_c       33.74062381927115
_cell_angle_alpha    90.0
_cell_angle_beta     90.0
_cell_angle_gamma    90.0

_space_group_name_H-M_alt    "P 1"
_space_group_IT_number       1

loop_
  _space_group_symop_operation_xyz
  'x, y, z'

loop_
  _atom_site_type_symbol
  _atom_site_label
  _atom_site_symmetry_multiplicity
  _atom_site_fract_x
  _atom_site_fract_y
  _atom_site_fract_z
  _atom_site_occupancy
  Cu  Cu1       1.0  0.036146744642383356  0.42270482253567215  0.1469524996412649  1.0000
  Cu  Cu2       1.0  0.9637363801455308  0.5772977004376922  0.8530467527145382  1.0000
  Cu  Cu3       1.0  0.4635541131382548  0.07729355470149663  0.14700889262358122  1.0000
  Cu  Cu4       1.0  0.5362903486238982  0.9226962087294958  0.8529995519679352  1.0000
  Cu  Cu5       1.0  0.46416730887633406  0.4227091520898527  0.3531469806721339  1.0000
  Cu  Cu6       1.0  0.5361934491349742  0.5772537420193441  0.6469521640329983  1.0000
  Cu  Cu7       1.0  0.036728291302048445  0.07724984495491156  0.3528872311905388  1.0000
  Cu  Cu8       1.0  0.963595749210605  0.9226695882831938  0.6469932511523382  1.0000
  Cu  Cu9       1.0  0.5980090685836716  0.2332015960578428  0.02784396343749572  1.0000
  Cu  Cu10      1.0  0.40164072161430747  0.7667541249843831  0.9722776704018514  1.0000
  Cu  Cu11      1.0  0.9016096667644954  0.2667656144332738  0.027709145964343717  1.0000
  Cu  Cu12      1.0  0.09838669125192835  0.7332451147264089  0.9722843448024363  1.0000
  Cu  Cu13      1.0  0.9020277110695173  0.23317806688310425  0.4718954428078279  1.0000
  Cu  Cu14      1.0  0.09826750692632187  0.7667283829112372  0.5277357865821742  1.0000
  Cu  Cu15      1.0  0.5988540693785257  0.26662385748407946  0.4724685141376973  1.0000
  Cu  Cu16      1.0  0.40154255994507904  0.733228639468978  0.527719757298193  1.0000
  Cu  Cu17      1.0  0.7499799203064788  0.25002028595980563  0.10407023223112678  1.0000
  Cu  Cu18      1.0  0.2500035092299593  0.7499956549658213  0.8959279389547647  1.0000
  Cu  Cu19      1.0  0.7499688087258346  0.2500660873553141  0.3957852388515538  1.0000
  Cu  Cu20      1.0  0.24989942387217728  0.7499694133880298  0.604072853969718  1.0000
  Cu  Cu21      1.0  0.16077706967829614  0.47254883865140457  0.09348214361442451  1.0000
  Cu  Cu22      1.0  0.8390796154769177  0.527443891442923  0.90651127161032  1.0000
  Cu  Cu23      1.0  0.33890413750064  0.02743360286860714  0.0935294614171379  1.0000
  Cu  Cu24      1.0  0.6610428322119846  0.9725501934634737  0.9064686102724576  1.0000
  Cu  Cu25      1.0  0.33958808721741557  0.4725091056082969  0.406586591250119  1.0000
  Cu  Cu26      1.0  0.6607569585814772  0.5273581630099017  0.5933911651809998  1.0000
  Cu  Cu27      1.0  0.1613532247777277  0.027382291283146763  0.40638170284492814  1.0000
  Cu  Cu28      1.0  0.8388014176807771  0.9725491824013183  0.5935242035674037  1.0000
  Cu  Cu29      1.0  0.9038770495980137  0.49902727360913995  0.11879175872351126  1.0000
  Cu  Cu30      1.0  0.09600139206718407  0.5009797429246454  0.8812080481914921  1.0000
  Cu  Cu31      1.0  0.5960103306750091  0.0009424389649508313  0.11881978045541856  1.0000
  Cu  Cu32      1.0  0.40399786184349146  0.9990846826295188  0.8811800305696595  1.0000
  Cu  Cu33      1.0  0.5961829538075031  0.49897050061821085  0.38124624800824936  1.0000
  Cu  Cu34      1.0  0.4038399167907237  0.5009883422483175  0.6188139924630621  1.0000
  Cu  Cu35      1.0  0.9040461550456452  0.000877042253132343  0.3811241063503439  1.0000
  Cu  Cu36      1.0  0.09602994051051703  0.9990049908236026  0.618751599679514  1.0000
  C   C1        1.0  0.44315671094415776  0.3279396265678668  0.0914211841831064  1.0000
  C   C2        1.0  0.5568308670104556  0.6720912312554  0.9086243377374854  1.0000
  C   C3        1.0  0.056798256972985156  0.17211192800603956  0.09136987989001395  1.0000
  C   C4        1.0  0.9431466553348491  0.8278903019167188  0.9086179209204546  1.0000
  C   C5        1.0  0.056788956786967416  0.3280016088566006  0.40846590437640257  1.0000
  C   C6        1.0  0.9431110961117121  0.6720304361280915  0.5913656548072759  1.0000
  C   C7        1.0  0.44329680793153914  0.17210961948484105  0.4086380561819785  1.0000
  C   C8        1.0  0.5567626483330133  0.8278705234156963  0.5913845318285368  1.0000
  C   C9        1.0  0.3529930509998551  0.36173902812137143  0.10081149854577601  1.0000
  C   C10       1.0  0.6469917762052697  0.6382889147901138  0.899228814977307  1.0000
  C   C11       1.0  0.14694297621009775  0.13830572855523687  0.10076927161449153  1.0000
  C   C12       1.0  0.8529838402760396  0.8616891538577373  0.8992148477483722  1.0000
  C   C13       1.0  0.1470075651488083  0.36178900923518764  0.3991084849155393  1.0000
  C   C14       1.0  0.8529543952488774  0.638216015575364  0.6007500062200203  1.0000
  C   C15       1.0  0.3531259374088483  0.13830463127024673  0.39923850040066217  1.0000
  C   C16       1.0  0.6469118463832066  0.8616724993617296  0.6007878637072794  1.0000
  N   N1        1.0  0.17987169671216885  0.39540833340232945  0.12493911497236597  1.0000
  N   N2        1.0  0.8200441838151472  0.6046005655184872  0.8750751306896826  1.0000
  N   N3        1.0  0.31990792848315325  0.10459733834174163  0.12495640622288205  1.0000
  N   N4        1.0  0.679978417690067  0.8953863182429767  0.875035807437585  1.0000
  N   N5        1.0  0.32031239848339  0.3954165413827973  0.37506579172254756  1.0000
  N   N6        1.0  0.6798815377993548  0.6045224652344163  0.6248894383252103  1.0000
  N   N7        1.0  0.18029503714147388  0.10456641914307932  0.3749915881824673  1.0000
  N   N8        1.0  0.8198985193206162  0.8953756004762358  0.624964943737169  1.0000
  N   N9        1.0  0.24747411936365177  0.42180349021546676  0.09963795808959858  1.0000
  N   N10       1.0  0.7524506673564713  0.5782100154536564  0.9003831406751708  1.0000
  N   N11       1.0  0.252321661623103  0.07821013889905276  0.09964189568021564  1.0000
  N   N12       1.0  0.7475959482488204  0.9217787106485372  0.9003381765385214  1.0000
  N   N13       1.0  0.25270318115056706  0.4218136191604118  0.4003595322809444  1.0000
  N   N14       1.0  0.7474468499866468  0.578135906995012  0.5995638430078144  1.0000
  N   N15       1.0  0.24783693371017199  0.07818639154454006  0.4003251658810345  1.0000
  N   N16       1.0  0.7522280898254555  0.92177867030041  0.5996843360553192  1.0000
  N   N17       1.0  0.5978070641001152  0.27986895608425916  0.09711671205921739  1.0000
  N   N18       1.0  0.4021491417387884  0.7201507933839335  0.9029306089497684  1.0000
  N   N19       1.0  0.9021048622770691  0.22016906681882722  0.09705928336754029  1.0000
  N   N20       1.0  0.09785772560280614  0.7798397988940486  0.9029315603482407  1.0000
  N   N21       1.0  0.9021474714415773  0.27993591629498293  0.4027208592145766  1.0000
  N   N22       1.0  0.09776183262070014  0.7201063132087805  0.5970717985520599  1.0000
  N   N23       1.0  0.5980188821614784  0.2201598128483005  0.402943940454996  1.0000
  N   N24       1.0  0.40204270254647195  0.7798221633534949  0.5970697347930078  1.0000
  N   N25       1.0  0.8414658072109786  0.47875600320880446  0.16765591038373845  1.0000
  N   N26       1.0  0.15846459171264102  0.5212552828793757  0.8323547239200723  1.0000
  N   N27       1.0  0.6583799815130751  0.02125507558436432  0.16766509799908322  1.0000
  N   N28       1.0  0.3416430589767066  0.978794934726346  0.8323076422977078  1.0000
  N   N29       1.0  0.6586320583492475  0.47875412470642575  0.3323575244359463  1.0000
  N   N30       1.0  0.34140307093854316  0.5212646595250535  0.6676698467539073  1.0000
  N   N31       1.0  0.8416971327741953  0.02122208476433792  0.3322919538146666  1.0000
  N   N32       1.0  0.15821410073435885  0.9787579291766296  0.6676637910030591  1.0000
  N   N33       1.0  0.11718847252475086  0.5261731990975652  0.07789737609286276  1.0000
  N   N34       1.0  0.8826532308045184  0.4737972963249988  0.9220589442716312  1.0000
  N   N35       1.0  0.3826350258618866  0.97382233543111  0.0779213486485657  1.0000
  N   N36       1.0  0.6174023025710513  0.026149540810748197  0.9221268807522289  1.0000
  N   N37       1.0  0.38297559141384285  0.5261575673206843  0.42213072121772327  1.0000
  N   N38       1.0  0.6169975527845031  0.4736587345015146  0.577972443652544  1.0000
  N   N39       1.0  0.11748908441322085  0.9737930600400276  0.42203921534861044  1.0000
  N   N40       1.0  0.8828444269371286  0.026052090555294147  0.5776838048776813  1.0000
  C   C17       1.0  0.24444274238091898  0.3588633970543262  0.12587672550678583  1.0000
  C   C18       1.0  0.7555095495888593  0.6411521803628539  0.8741465295230261  1.0000
  C   C19       1.0  0.2554204527759333  0.14115829299274665  0.12586868360903294  1.0000
  C   C20       1.0  0.7444837288724767  0.85882815934601  0.874125482864702  1.0000
  C   C21       1.0  0.25565147680778166  0.3588926973126767  0.37408270340260313  1.0000
  C   C22       1.0  0.7444250735520617  0.6410719073054537  0.6258302966934857  1.0000
  C   C23       1.0  0.24472654553555617  0.14113974191065617  0.37410347412731904  1.0000
  C   C24       1.0  0.7554315851126381  0.8588118269390018  0.6258685886551005  1.0000
  C   C25       1.0  0.4420233901269276  0.3033276723408203  0.057073071673611586  1.0000
  C   C26       1.0  0.5578904876194345  0.6966917859806935  0.9429836905802219  1.0000
  C   C27       1.0  0.05785627064635252  0.19671020638737396  0.05700942181302039  1.0000
  C   C28       1.0  0.9421072971931699  0.8032976026424692  0.9429827543216911  1.0000
  C   C29       1.0  0.0579013630692855  0.3033631101603276  0.44279661918245117  1.0000
  C   C30       1.0  0.9420366956695639  0.6966451092452788  0.5570146661278338  1.0000
  C   C31       1.0  0.4423579540346598  0.19668669528307245  0.44301329491217795  1.0000
  C   C32       1.0  0.5578120451066753  0.8032775554195777  0.5570206378786263  1.0000
  C   C33       1.0  0.782678415188882  0.46419247359448407  0.23052553239895274  1.0000
  C   C34       1.0  0.21730675409458303  0.535834977337329  0.7694940225592579  1.0000
  C   C35       1.0  0.7172561052144683  0.0358457905909407  0.23051800893952043  1.0000
  C   C36       1.0  0.2826861760239082  0.9641986293993626  0.7694572203951255  1.0000
  C   C37       1.0  0.7173055793459806  0.4641995894309179  0.2694773650652348  1.0000
  C   C38       1.0  0.2826744001120843  0.5358354976995824  0.7305441225102719  1.0000
  C   C39       1.0  0.7826698409081213  0.035842183392335136  0.26945680804373723  1.0000
  C   C40       1.0  0.21722002922509265  0.9641891383181829  0.730516829802355  1.0000
  C   C41       1.0  0.3536945511443976  0.4017107086420149  0.08535252299521007  1.0000
  C   C42       1.0  0.646266172667856  0.5983135237341035  0.9146805902967517  1.0000
  C   C43       1.0  0.14619404016767998  0.09832715243200725  0.08532348487890958  1.0000
  C   C44       1.0  0.853735778795555  0.9016683409158502  0.9146548557694696  1.0000
  C   C45       1.0  0.14637044213294528  0.4017447212968492  0.41460034452350614  1.0000
  C   C46       1.0  0.8536609098652905  0.5982433154351321  0.5852866048730866  1.0000
  C   C47       1.0  0.35388143166694247  0.09832093378975211  0.4146779406067348  1.0000
  C   C48       1.0  0.646115745182273  0.9016586061622713  0.5853619798653477  1.0000
  C   C49       1.0  0.7667996626635971  0.49178833660607413  0.1987269451414754  1.0000
  C   C50       1.0  0.23316290037326542  0.5082308609623966  0.8012876358474393  1.0000
  C   C51       1.0  0.7331134905246726  0.00824021217357563  0.1987274434547362  1.0000
  C   C52       1.0  0.2668895691759427  0.9918094915263694  0.8012484889427688  1.0000
  C   C53       1.0  0.7332219394464883  0.49179702462427327  0.3012729377549083  1.0000
  C   C54       1.0  0.2667547398479239  0.5082386753291239  0.698748148936318  1.0000
  C   C55       1.0  0.7668583658541654  0.008229152201568172  0.30124372111265985  1.0000
  C   C56       1.0  0.23298316995187035  0.9917859236825258  0.6987124177302145  1.0000
  N   N41       1.0  0.9069093790166362  0.44347210349018495  0.17971203836822305  1.0000
  N   N42       1.0  0.09301950605971061  0.5565389796117439  0.8202982414817703  1.0000
  N   N43       1.0  0.5929106593586027  0.05653481952885524  0.1797248758254656  1.0000
  N   N44       1.0  0.40704533308347957  0.9434997288861602  0.8202547494578799  1.0000
  N   N45       1.0  0.593216571146312  0.4434622326294847  0.3203145514668344  1.0000
  N   N46       1.0  0.40690154164578957  0.5565384858919776  0.6797254825998394  1.0000
  N   N47       1.0  0.9071974232491566  0.056494392798064196  0.3202236844392613  1.0000
  N   N48       1.0  0.0928361313519138  0.9434667410953885  0.6797352770680207  1.0000
  N   N49       1.0  0.5336136536278293  0.2734601541380267  0.06143831806259759  1.0000
  N   N50       1.0  0.4662458012796151  0.7265470284306375  0.9386321856748142  1.0000
  N   N51       1.0  0.9662024268262386  0.2265633095420719  0.061359866641235807  1.0000
  N   N52       1.0  0.03376701109143856  0.7734462960955253  0.9386347814863428  1.0000
  N   N53       1.0  0.9663278017700274  0.2735018034992127  0.43839586187538476  1.0000
  N   N54       1.0  0.03366317257607317  0.7265063612812015  0.5613726874029988  1.0000
  N   N55       1.0  0.5340793989607124  0.22652713832516774  0.4386789944361265  1.0000
  N   N56       1.0  0.4661453546786392  0.7734284865689965  0.5613680298427426  1.0000
  N   N57       1.0  0.9942540162333934  0.5391232633801323  0.08931248264809373  1.0000
  N   N58       1.0  0.005611792398660942  0.46086132606179503  0.9106552902422573  1.0000
  N   N59       1.0  0.5055862242590109  0.9608782913912778  0.08933105515681544  1.0000
  N   N60       1.0  0.4944458663099518  0.03911136578617264  0.9107392121321979  1.0000
  N   N61       1.0  0.505882621632561  0.5391172052830387  0.41070483933294083  1.0000
  N   N62       1.0  0.49402684867918784  0.46077800092075744  0.5894311548220386  1.0000
  N   N63       1.0  0.9945204484259847  0.960852523400619  0.410637231094492  1.0000
  N   N64       1.0  0.005904351054336177  0.03896771184026477  0.5890160616880334  1.0000
  C   C57       1.0  0.8731703334302098  0.43484016116500834  0.21784660710883785  1.0000
  C   C58       1.0  0.12679393940016842  0.5651816329234017  0.7821697614292632  1.0000
  C   C59       1.0  0.6267248550307304  0.06518777838166527  0.21784707993859548  1.0000
  C   C60       1.0  0.37320303707907626  0.9348508481958292  0.7821319464472035  1.0000
  C   C61       1.0  0.626850044305824  0.43484266276439926  0.28216786124896853  1.0000
  C   C62       1.0  0.3731843612731136  0.5651801742355929  0.7178599183658586  1.0000
  C   C63       1.0  0.8732660833040585  0.06516972843079204  0.282116892286914  1.0000
  C   C64       1.0  0.12671549913462551  0.9348308024253693  0.7178584588809617  1.0000
  C   C65       1.0  0.544777277157296  0.31336334418011813  0.11509587623925299  1.0000
  C   C66       1.0  0.45522661215778304  0.686667929832784  0.8849442073547152  1.0000
  C   C67       1.0  0.955187033017409  0.1866878583349903  0.11504830233515972  1.0000
  C   C68       1.0  0.04476400538403812  0.8133177223969504  0.8849411493450794  1.0000
  C   C69       1.0  0.9551917792696888  0.31344209338885803  0.38477213763814594  1.0000
  C   C70       1.0  0.044699475311394204  0.6866156146173492  0.6150508938987859  1.0000
  C   C71       1.0  0.5448765179726973  0.18669077376334345  0.38494859587147884  1.0000
  C   C72       1.0  0.45514552580392537  0.8132983955982492  0.6150610922877547  1.0000
  C   C73       1.0  0.07241369794159551  0.3046376138759044  0.1308891509209302  1.0000
  C   C74       1.0  0.9275652099856286  0.6953666574928964  0.8691015735227544  1.0000
  C   C75       1.0  0.4275176040653796  0.19535881726091955  0.1309373612267771  1.0000
  C   C76       1.0  0.5724147151075323  0.8046198503023162  0.8690977431246416  1.0000
  C   C77       1.0  0.42762358037765574  0.3046487538817984  0.36914185315604336  1.0000
  C   C78       1.0  0.5724320046918787  0.6953197668128288  0.6308860361610802  1.0000
  C   C79       1.0  0.07261055412185174  0.1953316177545075  0.36899411964136947  1.0000
  C   C80       1.0  0.9275665317995434  0.8046215652888061  0.6308964737242149  1.0000
  H   H1        1.0  0.9937067746530759  0.3270165175955414  0.13353786012759933  1.0000
  H   H2        1.0  0.0062656877209743556  0.6729862761217342  0.86644287580797  1.0000
  H   H3        1.0  0.5062016672670735  0.1729734748215232  0.13360451854530922  1.0000
  H   H4        1.0  0.49372636318331065  0.8270045213432463  0.8664406830812381  1.0000
  H   H5        1.0  0.5063530233292054  0.32702269407434126  0.36652136980455263  1.0000
  H   H6        1.0  0.4936761584765051  0.6729575788014861  0.6335342530652243  1.0000
  H   H7        1.0  0.9939218348244306  0.17294939990747885  0.36630985986201964  1.0000
  H   H8        1.0  0.006232470997923123  0.8270128740489275  0.633562949401604  1.0000
  H   H9        1.0  0.04446715701403547  0.27669091793325634  0.1467873841609717  1.0000
  H   H10       1.0  0.955493937710345  0.7233130835251109  0.8531998699430096  1.0000
  H   H11       1.0  0.4554428434960343  0.22330379981115497  0.14684230224708186  1.0000
  H   H12       1.0  0.5444601072541124  0.7766725687111062  0.8532018503101374  1.0000
  H   H13       1.0  0.45561585197990234  0.2766993840059871  0.3532557801804069  1.0000
  H   H14       1.0  0.5445635023541047  0.7232665934385716  0.6467977898715351  1.0000
  H   H15       1.0  0.044724563984822635  0.22328174597459433  0.35309091824107436  1.0000
  H   H16       1.0  0.9555324426798177  0.7766742151151866  0.6467904543616328  1.0000
  H   H17       1.0  0.08378264502704602  0.2966495461947218  0.09938748888991986  1.0000
  H   H18       1.0  0.9162351478853945  0.703355403353266  0.900604382420439  1.0000
  H   H19       1.0  0.4162272143514065  0.20334905810967432  0.0994333727646859  1.0000
  H   H20       1.0  0.5837588161747643  0.7966354639494907  0.9006010371772134  1.0000
  H   H21       1.0  0.41613989193811174  0.29666645044879486  0.40064069392061086  1.0000
  H   H22       1.0  0.5837885358689461  0.7033202825894269  0.5993870131869747  1.0000
  H   H23       1.0  0.08386113315726092  0.20331449891501788  0.400500999320907  1.0000
  H   H24       1.0  0.9162474451345146  0.7966412794093667  0.5993912406780653  1.0000
  C   C81       1.0  0.5999406408144113  0.33075892394134326  0.15247812400313634  1.0000
  C   C82       1.0  0.40011639897962803  0.6692791645103687  0.8475479998396462  1.0000
  C   C83       1.0  0.9000842498186413  0.1693009202165544  0.15244694375692058  1.0000
  C   C84       1.0  0.09987575888313373  0.8307114623344568  0.847547198094359  1.0000
  C   C85       1.0  0.8999897461971664  0.3308641437668476  0.34741124604347956  1.0000
  C   C86       1.0  0.0998165277614235  0.6692389233344401  0.6524511558919786  1.0000
  C   C87       1.0  0.5998730407899114  0.16930947792517637  0.34752827729745617  1.0000
  C   C88       1.0  0.4000491869075469  0.8306971656260859  0.6524545650831859  1.0000
  H   H25       1.0  0.5991767444949085  0.30656673923661787  0.17518113337234423  1.0000
  H   H26       1.0  0.40089839959993356  0.6934776508303269  0.8248511155074377  1.0000
  H   H27       1.0  0.9008529195352729  0.19350370298333983  0.1751394135841386  1.0000
  H   H28       1.0  0.09910273476471572  0.80651671385744  0.82484678624258  1.0000
  H   H29       1.0  0.9007627050691935  0.30669310070572553  0.3246869410408861  1.0000
  H   H30       1.0  0.09899998337638437  0.6934437996281863  0.675141745688144  1.0000
  H   H31       1.0  0.599023231520067  0.19350990252093775  0.3248336511723307  1.0000
  H   H32       1.0  0.40080146377865944  0.8065028711411472  0.6751554205932514  1.0000
  H   H33       1.0  0.5339880292952335  0.35504652641963674  0.16276351365969097  1.0000
  H   H34       1.0  0.4660969315789603  0.6449984346151957  0.8372640515152405  1.0000
  H   H35       1.0  0.9660758477766431  0.1450253731998878  0.16273647777131572  1.0000
  H   H36       1.0  0.03389071307862738  0.8549923320240761  0.8372662589020952  1.0000
  H   H37       1.0  0.9659061773053169  0.3551709960376664  0.3371469438235814  1.0000
  H   H38       1.0  0.03386448536104302  0.6449526044418104  0.6627398659098607  1.0000
  H   H39       1.0  0.5338559234507906  0.14503239211311586  0.33725755044332684  1.0000
  H   H40       1.0  0.46605857689249025  0.8549724445744765  0.6627339502266476  1.0000
  C   C89       1.0  0.1973916410911367  0.32224776160906116  0.1483308566032141  1.0000
  C   C90       1.0  0.8025594905593656  0.6777582703135828  0.8516759487626621  1.0000
  C   C91       1.0  0.30247804493033736  0.1777585441801091  0.14834745614647932  1.0000
  C   C92       1.0  0.6974196428465367  0.8222190470466876  0.851663454451199  1.0000
  C   C93       1.0  0.30273156500192466  0.32226862715786236  0.35164934251227215  1.0000
  C   C94       1.0  0.6973944142053603  0.6776770236208203  0.6483108200041684  1.0000
  C   C95       1.0  0.19767721223893936  0.17772930292724745  0.35160227281117623  1.0000
  C   C96       1.0  0.80253810858871  0.8222060330093824  0.6483283688756891  1.0000
  H   H41       1.0  0.18318605571077654  0.3306659044428187  0.1796769380517944  1.0000
  H   H42       1.0  0.8167324271610819  0.6693282369927753  0.8203313079345618  1.0000
  H   H43       1.0  0.3166149306438706  0.1693235564350327  0.17969224016330257  1.0000
  H   H44       1.0  0.6832388713371527  0.8306430975167218  0.820317913329193  1.0000
  H   H45       1.0  0.317063764348892  0.33068230773860413  0.32030733238857095  1.0000
  H   H46       1.0  0.6831823326238126  0.6692401775193834  0.6796522775004079  1.0000
  H   H47       1.0  0.183563074836381  0.16927805930626144  0.32026094120072907  1.0000
  H   H48       1.0  0.8167050887284282  0.8306311225156409  0.6796744955361865  1.0000
  H   H49       1.0  0.2755493731840318  0.29932081707531627  0.1476402389805727  1.0000
  H   H50       1.0  0.7244193225941165  0.7006912334318903  0.8523652768776174  1.0000
  H   H51       1.0  0.22436159685859797  0.2006990396585157  0.1476525892894894  1.0000
  H   H52       1.0  0.7755524428999233  0.7992837644782356  0.8523553265998363  1.0000
  H   H53       1.0  0.22453627207847304  0.2993529111654669  0.35231394324978405  1.0000
  H   H54       1.0  0.775569372031417  0.700598680479713  0.6476352995055504  1.0000
  H   H55       1.0  0.2757759181957008  0.2006757202844781  0.3522933961809201  1.0000
  H   H56       1.0  0.724427282208207  0.7992639396490301  0.6476349396295776  1.0000
  C   C97       1.0  0.17910748117325717  0.5573391804532365  0.05900576421703031  1.0000
  C   C98       1.0  0.8207304237822847  0.44261495610789625  0.9409255125636458  1.0000
  C   C99       1.0  0.32078043503396647  0.9426624715259121  0.059001460793308584  1.0000
  C   C100      1.0  0.6792935271318485  0.057286292707573044  0.9410730062387764  1.0000
  C   C101      1.0  0.3209797830289997  0.5573312063796754  0.44098871497441894  1.0000
  C   C102      1.0  0.6788507607351364  0.44239424938249966  0.5592054704202982  1.0000
  C   C103      1.0  0.17927639575729903  0.9426442661959114  0.44099627515647694  1.0000
  C   C104      1.0  0.8211849197676157  0.05715473679802756  0.5586114430686482  1.0000
  C   C105      1.0  0.1208341396795102  0.6333337097672  0.04494591956634046  1.0000
  C   C106      1.0  0.8790472914748572  0.36661812963922213  0.9549701464701635  1.0000
  C   C107      1.0  0.3791305274953011  0.8666731989517725  0.044928285303317037  1.0000
  C   C108      1.0  0.6209745297352041  0.13325679441610822  0.9552476224238813  1.0000
  C   C109      1.0  0.37917781145681406  0.6333281469654272  0.4550436623484707  1.0000
  C   C110      1.0  0.620304783680209  0.36632497639757094  0.5454581361003188  1.0000
  C   C111      1.0  0.12085044078686244  0.866660415031593  0.45509446568788864  1.0000
  C   C112      1.0  0.8798354536784428  0.13304010334089883  0.5442111590991914  1.0000
  C   C113      1.0  0.9812067281376763  0.5790928740445829  0.07858047519446765  1.0000
  C   C114      1.0  0.018672586846203654  0.42088685989619645  0.9213689469908122  1.0000
  C   C115      1.0  0.5186878417847512  0.9209168553442147  0.07857739248609347  1.0000
  C   C116      1.0  0.4813714025163908  0.07905817398121907  0.9215491515576992  1.0000
  C   C117      1.0  0.5188666108255691  0.5790966613629955  0.42140977541232927  1.0000
  C   C118      1.0  0.48091165907087985  0.42076587680943717  0.5788509024655782  1.0000
  C   C119      1.0  0.9813648162222137  0.9209018029719195  0.42142287888902485  1.0000
  C   C120      1.0  0.019292744706230103  0.07885509911693131  0.5780341909938773  1.0000
  C   C121      1.0  0.09623180288854595  0.5916137614758097  0.05966854811577949  1.0000
  C   C122      1.0  0.9036126155518543  0.4083412872618215  0.9402472084693099  1.0000
  C   C123      1.0  0.40369096042015556  0.9083948419286463  0.059651977207218376  1.0000
  C   C124      1.0  0.596390607663632  0.09155523729863166  0.9404775236902944  1.0000
  C   C125      1.0  0.40381753619081606  0.5916132463163521  0.4403130619542017  1.0000
  C   C126      1.0  0.5959471160253282  0.40812299861095197  0.5600342330540943  1.0000
  C   C127      1.0  0.09632919009531067  0.9083830333934176  0.44036639374451036  1.0000
  C   C128      1.0  0.9044295644221163  0.0913416332676021  0.5590117448337935  1.0000
  C   C129      1.0  0.44804856905799995  0.421127819195214  0.057294077919741636  1.0000
  C   C130      1.0  0.5518895313838929  0.5788924610083425  0.942729335261411  1.0000
  C   C131      1.0  0.051826994310596265  0.07890876621767658  0.05727010711446501  1.0000
  C   C132      1.0  0.9480917474887417  0.921087583949731  0.9427115173471281  1.0000
  C   C133      1.0  0.052045785269320154  0.4211530727496656  0.4426744519197479  1.0000
  C   C134      1.0  0.948079233992805  0.578827834725109  0.5572483595285952  1.0000
  C   C135      1.0  0.44821530636654555  0.07889453904637496  0.44273769525149836  1.0000
  C   C136      1.0  0.551751499520763  0.9210801497494753  0.5573090995432324  1.0000
  H   H57       1.0  0.39276440383696937  0.43473038660806257  0.0326171043887074  1.0000
  H   H58       1.0  0.6071513589225065  0.5652968131660003  0.9674148539678883  1.0000
  H   H59       1.0  0.10709370690977076  0.06531776793315273  0.03258275710467909  1.0000
  H   H60       1.0  0.8928047260120803  0.9346945817814465  0.9673860662852809  1.0000
  H   H61       1.0  0.10736235566179804  0.43476072722152864  0.4673411471610846  1.0000
  H   H62       1.0  0.8928582927317745  0.565217108876037  0.5325628460219533  1.0000
  H   H63       1.0  0.3929077485205117  0.06529048337058879  0.46740999441392994  1.0000
  H   H64       1.0  0.6070324482263544  0.9346816477907504  0.5326297939317803  1.0000
  H   H65       1.0  0.5067687839821811  0.3963266646108507  0.04454061307066389  1.0000
  H   H66       1.0  0.4931309112969631  0.6036900004870298  0.9554727368214504  1.0000
  H   H67       1.0  0.9930581593324189  0.10370568667328955  0.04452986353057964  1.0000
  H   H68       1.0  0.0068166825656421366  0.8962900929141663  0.9554691358249027  1.0000
  H   H69       1.0  0.9933874771780957  0.39634404694921693  0.4554400929582649  1.0000
  H   H70       1.0  0.006807860214730378  0.6036323717126388  0.5445041530523143  1.0000
  H   H71       1.0  0.5069694898851851  0.10368367949303593  0.45549817265896986  1.0000
  H   H72       1.0  0.49299947719149323  0.8962858207784601  0.5445575249412375  1.0000
  C   C137      1.0  0.8505483510871534  0.6175696699910539  0.1305440890301343  1.0000
  C   C138      1.0  0.1492671850659963  0.38230472478306876  0.8694644910999618  1.0000
  C   C139      1.0  0.6493846207503152  0.8824526863894492  0.13054254396192672  1.0000
  C   C140      1.0  0.35092982277066087  0.11753404279073539  0.8695824836011535  1.0000
  C   C141      1.0  0.6495046926180451  0.6175905173146299  0.369449343845276  1.0000
  C   C142      1.0  0.35015000837830873  0.38222274908969334  0.6307479154478892  1.0000
  C   C143      1.0  0.8506336861785758  0.8824547596319429  0.369453834257388  1.0000
  C   C144      1.0  0.14962454616730456  0.1174105662972486  0.6299962436510069  1.0000
  H   H73       1.0  0.8531710729878567  0.5914486857945047  0.15093559793612182  1.0000
  H   H74       1.0  0.1461033204479217  0.40835004102798694  0.848988391990322  1.0000
  H   H75       1.0  0.6467334010117569  0.9085747805787395  0.15093312199358497  1.0000
  H   H76       1.0  0.3532595814708868  0.09140185355250173  0.8492010043297108  1.0000
  H   H77       1.0  0.646910418408205  0.5914719761261072  0.34905538849492174  1.0000
  H   H78       1.0  0.35385685819361556  0.40824984534879843  0.6512350033028126  1.0000
  H   H79       1.0  0.8533309170640786  0.908581459652565  0.34906844094450035  1.0000
  H   H80       1.0  0.14892775223943572  0.09128770462174425  0.6503960324920453  1.0000
  H   H81       1.0  0.7587841396942521  0.6341075551180191  0.13508792589924168  1.0000
  H   H82       1.0  0.2412429219897557  0.36588582534323655  0.8649112516372409  1.0000
  H   H83       1.0  0.7411681475814527  0.8659249237947902  0.13508579096358644  1.0000
  H   H84       1.0  0.2594050035401794  0.1341944867042064  0.8650186290230099  1.0000
  H   H85       1.0  0.7412609899512581  0.634133871587304  0.3649102997659879  1.0000
  H   H86       1.0  0.2579043699371859  0.36596253176552357  0.6353213246490306  1.0000
  H   H87       1.0  0.7588231484871777  0.8659427228403292  0.36490738725425353  1.0000
  H   H88       1.0  0.24045996644308695  0.1344830772883672  0.6343973317824445  1.0000
  H   H89       1.0  0.9304239411752881  0.6381975163496836  0.13870971617824965  1.0000
  H   H90       1.0  0.06962982031721954  0.36152746786691814  0.8614351495661842  1.0000
  H   H91       1.0  0.5695348008670277  0.8618152326002146  0.13870914001097367  1.0000
  H   H92       1.0  0.43113712519997155  0.13804477383666652  0.8614417567551512  1.0000
  H   H93       1.0  0.5696212389695342  0.6382144244958204  0.3612816257304065  1.0000
  H   H94       1.0  0.42940066709775127  0.36129810576054383  0.6387588992479143  1.0000
  H   H95       1.0  0.9304468555843591  0.8618047376709208  0.36128388477232115  1.0000
  H   H96       1.0  0.06863592500091328  0.13755040492122322  0.638282697525892  1.0000
  C   C145      1.0  0.3126443790747236  0.5521191448494406  0.04182006240744671  1.0000
  C   C146      1.0  0.6872277240108645  0.44783954590825004  0.9581355332548034  1.0000
  C   C147      1.0  0.187251432668542  0.9478854504788908  0.04181213575637082  1.0000
  C   C148      1.0  0.812837686106221  0.052035618031704874  0.9582412182725  1.0000
  C   C149      1.0  0.18743333611861154  0.5521157847184116  0.4581710119690405  1.0000
  C   C150      1.0  0.8123175786597473  0.44755417249587326  0.5419487598033136  1.0000
  C   C151      1.0  0.31279376773462736  0.9478738361613311  0.45819261329931854  1.0000
  C   C152      1.0  0.6873796889192321  0.05198003158042162  0.5416139900552609  1.0000
  H   H97       1.0  0.32610366474368874  0.5758514502190709  0.01906561908159215  1.0000
  H   H98       1.0  0.6737907778641262  0.4241024823567744  0.9808865817438496  1.0000
  H   H99       1.0  0.17377949197795015  0.9241561958247712  0.01905542129585994  1.0000
  H   H100      1.0  0.8264082507956707  0.07576687549769395  0.9809902143878599  1.0000
  H   H101      1.0  0.173996949012858  0.5758512279985227  0.4809236282086838  1.0000
  H   H102      1.0  0.8257543897693468  0.42371575732401645  0.519295951310275  1.0000
  H   H103      1.0  0.32627535935157376  0.9241477744157207  0.4809518568022918  1.0000
  H   H104      1.0  0.673581493658937  0.07572631394761611  0.5188929315276912  1.0000
  H   H105      1.0  0.31533754709318007  0.5224482073920231  0.026387018683640705  1.0000
  H   H106      1.0  0.6845888331529801  0.4775068950254122  0.9735776196703647  1.0000
  H   H107      1.0  0.18457165095322636  0.9775589510216308  0.026383052698111416  1.0000
  H   H108      1.0  0.8154578138007446  0.02236619587213602  0.9736792744512082  1.0000
  H   H109      1.0  0.1847232354036232  0.5224475693431954  0.47360814545687757  1.0000
  H   H110      1.0  0.8149005102013912  0.4771509888835586  0.5263762680855175  1.0000
  H   H111      1.0  0.3154470165928321  0.9775497977688711  0.47361825962170584  1.0000
  H   H112      1.0  0.6844482114593231  0.022319633052418148  0.5261672701008933  1.0000
  C   C153      1.0  0.6876538943915633  0.5301326347459063  0.19724502115824172  1.0000
  C   C154      1.0  0.31230260046889524  0.4698836236069951  0.8027681387050708  1.0000
  C   C155      1.0  0.812282477786245  0.9698990005042498  0.19724936879891564  1.0000
  C   C156      1.0  0.18770807433385156  0.030147138415044784  0.8027392976684863  1.0000
  C   C157      1.0  0.8123773806080558  0.5301398345077245  0.3027409573212674  1.0000
  C   C158      1.0  0.18761296918246  0.4698922008422179  0.6972742105766446  1.0000
  C   C159      1.0  0.6876539883307525  0.9698941893015104  0.30272988531903045  1.0000
  C   C160      1.0  0.3122615428494586  0.03009994539875255  0.6971685643149507  1.0000
  H   H113      1.0  0.6525269871877435  0.5358201485843714  0.22749194763419325  1.0000
  H   H114      1.0  0.3474093863573337  0.4641941412290436  0.7725190103250863  1.0000
  H   H115      1.0  0.8474322398263188  0.9642212544681947  0.22749542033034467  1.0000
  H   H116      1.0  0.1525346966905317  0.03582801052367935  0.7724961935876057  1.0000
  H   H117      1.0  0.8475143391025566  0.5358139109867461  0.2724926368515441  1.0000
  H   H118      1.0  0.15245099817893257  0.46421725860499186  0.7275197171429708  1.0000
  H   H119      1.0  0.6524463766936804  0.9642251843115929  0.27248854779028425  1.0000
  H   H120      1.0  0.3475320229549714  0.03581122937379325  0.7273955969793283  1.0000
  H   H121      1.0  0.7530341632793479  0.5557662867674422  0.1901336973130914  1.0000
  H   H122      1.0  0.2469217606847853  0.4442525624936878  0.809890739259102  1.0000
  H   H123      1.0  0.7469103858352427  0.944259813121593  0.19014984808968785  1.0000
  H   H124      1.0  0.2530682266318826  0.05578951431048204  0.8098388176429987  1.0000
  H   H125      1.0  0.7470095104680979  0.5557803487500403  0.30983983824879163  1.0000
  H   H126      1.0  0.25301106743115437  0.4442587440005075  0.6901746922075552  1.0000
  H   H127      1.0  0.7530119083097734  0.944247104270326  0.30981472910395985  1.0000
  H   H128      1.0  0.2469547303895745  0.0557523621069629  0.6900571313281337  1.0000
  C   C161      1.0  0.361744744848812  0.3092703868809093  0.020664352103353014  1.0000
  C   C162      1.0  0.6382007617298168  0.6907536547017544  0.9793862918619315  1.0000
  C   C163      1.0  0.1381831659176934  0.1907739077237205  0.02060983335519807  1.0000
  C   C164      1.0  0.8618061731617702  0.8092413782028159  0.979386583387057  1.0000
  C   C165      1.0  0.13810338038475992  0.3092712619272304  0.47922723098445563  1.0000
  C   C166      1.0  0.8617368720810276  0.6907248168017254  0.5206072320498736  1.0000
  C   C167      1.0  0.3620748633985266  0.19074449703842064  0.479421967543451  1.0000
  C   C168      1.0  0.6381384107138  0.8092223360289946  0.5206215144126002  1.0000
  H   H129      1.0  0.2788233264236402  0.2877877475496336  0.020817201690887157  1.0000
  H   H130      1.0  0.7211016065160548  0.7122442847499318  0.9792262758443563  1.0000
  H   H131      1.0  0.2211165083956577  0.21225184950701886  0.02078416884550006  1.0000
  H   H132      1.0  0.7788980948342981  0.7877535168614689  0.9792293010955079  1.0000
  H   H133      1.0  0.22093123733627165  0.2877534036789472  0.47910523981325404  1.0000
  H   H134      1.0  0.7788504853420121  0.7122211555280292  0.5207722488694941  1.0000
  H   H135      1.0  0.2791650851512145  0.21223240060753912  0.4792668420151863  1.0000
  H   H136      1.0  0.7210398384961285  0.7877319379116867  0.5207804951901199  1.0000
  H   H137      1.0  0.3174760781675492  0.33968627430737225  0.023929084304057952  1.0000
  H   H138      1.0  0.6825007768081794  0.6603423256916455  0.9761174013316292  1.0000
  H   H139      1.0  0.18243085224061  0.1603549973061485  0.0238744283662461  1.0000
  H   H140      1.0  0.8175149962121262  0.8396537708782921  0.9761155272633611  1.0000
  H   H141      1.0  0.18251613208605216  0.33966951806052076  0.4759833796785748  1.0000
  H   H142      1.0  0.817422948462906  0.6603138363390801  0.5238611935439613  1.0000
  H   H143      1.0  0.3177801492842985  0.16033161750716401  0.4761601040121093  1.0000
  H   H144      1.0  0.6824354076583177  0.8396332032364474  0.5239005097189555  1.0000
  C   C169      1.0  0.9355336335448514  0.4009654928216342  0.2407045773961884  1.0000
  C   C170      1.0  0.06443480761944183  0.5990550657416074  0.759308427496437  1.0000
  C   C171      1.0  0.5643657306910816  0.09906235647317807  0.24070778668083181  1.0000
  C   C172      1.0  0.4355248789149713  0.9009656013134494  0.7592774705348039  1.0000
  C   C173      1.0  0.5644829206468001  0.4009718961833029  0.2593056327393911  1.0000
  C   C174      1.0  0.43556333077319914  0.5990542954436746  0.7407148905137848  1.0000
  C   C175      1.0  0.9355901741546618  0.09905300339817648  0.25925845152192273  1.0000
  C   C176      1.0  0.06443546843407616  0.9009487914443387  0.7407295432280283  1.0000
  H   H145      1.0  0.8780563379115875  0.39642401256019655  0.26781845517598035  1.0000
  H   H146      1.0  0.12193112711414  0.6035993578610623  0.7321984525106161  1.0000
  H   H147      1.0  0.6218554865936925  0.10360879481074735  0.2678184509384111  1.0000
  H   H148      1.0  0.3780458140775446  0.8964256707318978  0.7321638040403403  1.0000
  H   H149      1.0  0.6219793089986997  0.3964327628014245  0.23219524712050113  1.0000
  H   H150      1.0  0.3780825209341443  0.6035969613077116  0.7678281904926479  1.0000
  H   H151      1.0  0.8781129533841017  0.10359318661199594  0.23214398207834072  1.0000
  H   H152      1.0  0.12193707435460442  0.896422395588984  0.7678411177017731  1.0000
  H   H153      1.0  0.9290307663757377  0.3723054098583607  0.22361764220280436  1.0000
  H   H154      1.0  0.07091034407552925  0.6277147029617063  0.7763974209021816  1.0000
  H   H155      1.0  0.5708372635177963  0.1277215373427218  0.22361805241387464  1.0000
  H   H156      1.0  0.42899495625799106  0.8723085716745378  0.7763687403154576  1.0000
  H   H157      1.0  0.5709663527847589  0.3723100689186323  0.2763895679631383  1.0000
  H   H158      1.0  0.42906851149842384  0.6277139519443058  0.723626743713101  1.0000
  H   H159      1.0  0.9290578933131265  0.12770890307173854  0.2763520355419411  1.0000
  H   H160      1.0  0.07096591666715148  0.8722831393210779  0.7236512777157427  1.0000
  C   C177      1.0  0.43837220078074374  0.3068867634440932  0.9817731413294686  1.0000
  C   C178      1.0  0.5616066580660687  0.6931286413308353  0.018283816622523815  1.0000
  C   C179      1.0  0.06166722061587279  0.1931719136842584  0.9817011711958995  1.0000
  C   C180      1.0  0.9383971915690669  0.806868609243748  0.018284736690589526  1.0000
  C   C181      1.0  0.061266951827944297  0.30691438972072366  0.5180845909613303  1.0000
  C   C182      1.0  0.9383626254400146  0.6931177414678084  0.4817156367872338  1.0000
  C   C183      1.0  0.4387017523061715  0.19313520759133201  0.5183135832115107  1.0000
  C   C184      1.0  0.56157721604255  0.8068600191044294  0.4817175065565669  1.0000
  H   H161      1.0  0.3943481196076678  0.32725514294695196  0.9596718042097724  1.0000
  H   H162      1.0  0.6056805578128852  0.6727701896747805  0.04038462535706219  1.0000
  H   H163      1.0  0.10581729213956442  0.1728311106745773  0.9595987407013407  1.0000
  H   H164      1.0  0.8943146975371142  0.8272266225059427  0.0403844682850982  1.0000
  H   H165      1.0  0.10532914188692782  0.3272258549621773  0.5402282925242395  1.0000
  H   H166      1.0  0.8943229740067354  0.6727640579198803  0.45960466770661224  1.0000
  H   H167      1.0  0.3945960824819426  0.1728064040594991  0.5404343067792867  1.0000
  H   H168      1.0  0.6056950251580697  0.8272187786618366  0.4596248762126669  1.0000
  H   H169      1.0  0.4405731523037652  0.2758360679223665  0.9694408148965036  1.0000
  H   H170      1.0  0.5593545435232053  0.7241816791500972  0.03061119147312973  1.0000
  H   H171      1.0  0.05942017265765721  0.22423369943588933  0.9693941936687008  1.0000
  H   H172      1.0  0.9406548967103565  0.7758160579035649  0.030613129213555388  1.0000
  H   H173      1.0  0.05871627935228176  0.27585256796789415  0.5303836574824425  1.0000
  H   H174      1.0  0.9406045455802889  0.7241753891720365  0.4693983096535185  1.0000
  H   H175      1.0  0.4410492509582427  0.224203580665675  0.5306099962837781  1.0000
  H   H176      1.0  0.5593101251116155  0.7758099669066201  0.4693835640062097  1.0000
  H   H177      1.0  0.5400389168105052  0.3165515358144141  0.9860653784106477  1.0000
  H   H178      1.0  0.45995760345962733  0.6834452507362374  0.013996566923097089  1.0000
  H   H179      1.0  0.9600082313997308  0.1834821455373936  0.9859535006135128  1.0000
  H   H180      1.0  0.04004414286128166  0.8165543240174707  0.013998702555927627  1.0000
  H   H181      1.0  0.95973912168729  0.31667922490761446  0.5137268375477169  1.0000
  H   H182      1.0  0.040017093657628955  0.6834411424544653  0.4860073185748596  1.0000
  H   H183      1.0  0.5403513327799886  0.18343920895437593  0.5140347070194962  1.0000
  H   H184      1.0  0.45993433389506094  0.8165528369475611  0.4859963732329985  1.0000
  C   C185      1.0  0.5385655359339881  0.45248250384966215  0.07645438467145363  1.0000
  C   C186      1.0  0.46143793041106074  0.547526445932169  0.9235575679190123  1.0000
  C   C187      1.0  0.961393067511518  0.04753656049160177  0.07644003837209261  1.0000
  C   C188      1.0  0.03859117444252318  0.9524404835955709  0.92354150129639  1.0000
  C   C189      1.0  0.9614263972887246  0.45249389590477074  0.4235376181913746  1.0000
  C   C190      1.0  0.03857854875667098  0.5474833982048887  0.576432320160341  1.0000
  C   C191      1.0  0.5386641480301746  0.04752844262557839  0.4235646748678734  1.0000
  C   C192      1.0  0.4612920702168835  0.9524430259132266  0.5764813595843306  1.0000
  H   H185      1.0  0.4851155633954378  0.47834984278003706  0.08899005092154441  1.0000
  H   H186      1.0  0.5149445955964641  0.5216659100325153  0.9110300981610114  1.0000
  H   H187      1.0  0.014914841504629628  0.021677348661617933  0.08896439573862495  1.0000
  H   H188      1.0  0.9851123870882029  0.9782869230480663  0.9109780004320936  1.0000
  H   H189      1.0  0.014792126347918932  0.4783763074961059  0.4109989459421124  1.0000
  H   H190      1.0  0.9851271859979358  0.5216063360333191  0.5889499550359584  1.0000
  H   H191      1.0  0.48515369221598614  0.02166543253720649  0.41104259680848954  1.0000
  H   H192      1.0  0.5148039562322736  0.978296296694979  0.5890185656640834  1.0000
  H   H193      1.0  0.6069688389375991  0.46416073702863087  0.054188838651555965  1.0000
  H   H194      1.0  0.39301314148115846  0.535840123932483  0.945812968298556  1.0000
  H   H195      1.0  0.892968346372955  0.03585004174606904  0.054184884778456115  1.0000
  H   H196      1.0  0.10694527058087543  0.9641475104899608  0.9458065655953524  1.0000
  H   H197      1.0  0.8930515400298168  0.4641526449559543  0.44582117563718693  1.0000
  H   H198      1.0  0.10706788993746681  0.5358178218024702  0.5541851158812784  1.0000
  H   H199      1.0  0.6071066367305211  0.035848367124568  0.4458178106775333  1.0000
  H   H200      1.0  0.3928881246585851  0.9641362760505721  0.5542231805173733  1.0000
  H   H201      1.0  0.5950942770478246  0.4389866823579319  0.10079258757654924  1.0000
  H   H202      1.0  0.40492622309551  0.5610135659790285  0.8992108564662153  1.0000
  H   H203      1.0  0.9048867139362782  0.06102049234097481  0.10078952105020027  1.0000
  H   H204      1.0  0.09517494488949262  0.9389367086874961  0.8992195411857259  1.0000
  H   H205      1.0  0.9048674545580198  0.4389934529006263  0.3992083326313497  1.0000
  H   H206      1.0  0.0950153428122078  0.5609854150753038  0.60078743067433  1.0000
  H   H207      1.0  0.5951493027581887  0.06101691230035204  0.3992130240224452  1.0000
  H   H208      1.0  0.4047726837637123  0.9389527824764049  0.6008246208413065  1.0000
  C   C193      1.0  0.7372079281161337  0.34734299490953724  0.14612952203127863  1.0000
  C   C194      1.0  0.26285002891816794  0.652680983269554  0.8538676814970244  1.0000
  C   C195      1.0  0.7628258239425432  0.15269219500015668  0.146135196723949  1.0000
  C   C196      1.0  0.23713445738961172  0.8473147017384658  0.8538701170044478  1.0000
  C   C197      1.0  0.7626998855996804  0.3474077102835193  0.3538102091290362  1.0000
  C   C198      1.0  0.2371108221983983  0.6526600059651974  0.6461382686600581  1.0000
  C   C199      1.0  0.7371558376370089  0.15269533186723913  0.35377859385701255  1.0000
  C   C200      1.0  0.2628058957406365  0.8473112249481565  0.6461276707540933  1.0000
  H   H209      1.0  0.7968712315277027  0.32470290340256347  0.13022663961803768  1.0000
  H   H210      1.0  0.20312138986460987  0.6753137868303569  0.8697567238339672  1.0000
  H   H211      1.0  0.7030700261253218  0.17532011416229654  0.13024958113935212  1.0000
  H   H212      1.0  0.29687576841557467  0.8246826002497898  0.8697554490814235  1.0000
  H   H213      1.0  0.7031774310528505  0.32474518139238706  0.3697351179429473  1.0000
  H   H214      1.0  0.2968128158546117  0.6753006107805417  0.6302495000208589  1.0000
  H   H215      1.0  0.7970086233604237  0.1753170184487217  0.3696361232417969  1.0000
  H   H216      1.0  0.2030667304883158  0.8246854583005444  0.6302329859916718  1.0000
  H   H217      1.0  0.7839529629209745  0.35451112072779833  0.17455885246917988  1.0000
  H   H218      1.0  0.21617291057278776  0.6455057210518588  0.8254294856987329  1.0000
  H   H219      1.0  0.7161681583250904  0.14551145468307947  0.17457530242167738  1.0000
  H   H220      1.0  0.2838090900654652  0.8544997080255378  0.8254336904926093  1.0000
  H   H221      1.0  0.7158300695844911  0.35455753053870387  0.3253964739156394  1.0000
  H   H222      1.0  0.2837887824987261  0.6454943933816085  0.6745787430825763  1.0000
  H   H223      1.0  0.7836782603309075  0.14551172147287647  0.3253190506582407  1.0000
  H   H224      1.0  0.21611866366003576  0.8544912668704284  0.674563207971523  1.0000
  H   H225      1.0  0.7361205366400757  0.37514695085578176  0.12797091342353747  1.0000
  H   H226      1.0  0.26393401048889426  0.624877235487737  0.8720259940040263  1.0000
  H   H227      1.0  0.7639195507097559  0.12488855407432865  0.12797716488755997  1.0000
  H   H228      1.0  0.23603028888770716  0.8751134231391946  0.8720349965670279  1.0000
  H   H229      1.0  0.7637731279905817  0.3752086944636825  0.37197447383353865  1.0000
  H   H230      1.0  0.23607755728178578  0.6248542352725429  0.6279825359731739  1.0000
  H   H231      1.0  0.7361334637720183  0.12488966224852478  0.3719322802429637  1.0000
  H   H232      1.0  0.263934800833258  0.8751158139782221  0.6279705306487626  1.0000
  C   C201      1.0  0.5712685647618938  0.528828911169818  0.169042408781452  1.0000
  C   C202      1.0  0.4287097085519895  0.4711856173205962  0.8309633654425672  1.0000
  C   C203      1.0  0.9286603931559024  0.9711965055484013  0.1690430667055893  1.0000
  C   C204      1.0  0.0713521794023284  0.02883343090882862  0.8309542562304366  1.0000
  C   C205      1.0  0.9287541272575667  0.5288372342138038  0.3309460280884375  1.0000
  C   C206      1.0  0.07126516841425136  0.47118115749386674  0.6690560604540953  1.0000
  C   C207      1.0  0.5713235647848253  0.9711971564570967  0.33095470608768623  1.0000
  C   C208      1.0  0.42850566455241074  0.028672020384532006  0.6689174337981308  1.0000
  H   H233      1.0  0.5201436119995572  0.5583350708031748  0.16928307874128562  1.0000
  H   H234      1.0  0.4798219629213987  0.44167689267508664  0.830722205891039  1.0000
  H   H235      1.0  0.9797599694212892  0.941685742023269  0.1692810937400072  1.0000
  H   H236      1.0  0.020222316367237834  0.058338920340180137  0.8307250748312178  1.0000
  H   H237      1.0  0.9798911733923852  0.5583411881706314  0.3307042136818307  1.0000
  H   H238      1.0  0.020153561844155232  0.4416727639657971  0.6693000468599515  1.0000
  H   H239      1.0  0.5202220815447346  0.9416865922522923  0.3307302596158688  1.0000
  H   H240      1.0  0.47988921955913083  0.05812918878175373  0.6690722689492489  1.0000
  H   H241      1.0  0.5015194790068639  0.5052095906653119  0.17819862416189133  1.0000
  H   H242      1.0  0.49846504362123634  0.49480149267554646  0.8218033617459201  1.0000
  H   H243      1.0  0.9984350807403868  0.9948090105653586  0.17819826333891076  1.0000
  H   H244      1.0  0.001594533434172921  0.0052157774424743675  0.8217993642446622  1.0000
  H   H245      1.0  0.998492937056024  0.5052140746318693  0.3217914858995724  1.0000
  H   H246      1.0  0.0014924103918497744  0.49480046265317096  0.6781950634811705  1.0000
  H   H247      1.0  0.5015318486760468  0.9948078048133677  0.32180750430619537  1.0000
  H   H248      1.0  0.49811514115902744  0.0050162812269018975  0.6780841728217376  1.0000
  H   H249      1.0  0.6002921917590985  0.5221501647767369  0.13841559800149528  1.0000
  H   H250      1.0  0.3996991569727643  0.47786668849277525  0.8615908061900241  1.0000
  H   H251      1.0  0.8996351762278029  0.9778786961732426  0.13841702701343436  1.0000
  H   H252      1.0  0.10040645938574146  0.022147463359951963  0.8615772543569336  1.0000
  H   H253      1.0  0.8997181418773219  0.5221616258842028  0.36157223832064733  1.0000
  H   H254      1.0  0.10033312376805803  0.4778502320054851  0.6384310775956206  1.0000
  H   H255      1.0  0.600399691077903  0.9778846210210238  0.3615752265945031  1.0000
  H   H256      1.0  0.39930522513480504  0.02195867918582984  0.6383133692627028  1.0000
  C   C209      1.0  0.07707192312265579  0.41055991551292115  0.2512807694417682  1.0000
  C   C210      1.0  0.9229100447074281  0.5894529686164675  0.748720779629494  1.0000
  C   C211      1.0  0.4228410836975236  0.0894535772553839  0.25128998686393994  1.0000
  C   C212      1.0  0.5770730411667995  0.9105496079273061  0.7487033370821903  1.0000
  C   C213      1.0  0.4229623323618329  0.410567164220193  0.24871129421249502  1.0000
  C   C214      1.0  0.577094855334249  0.5894576621018999  0.751298756719897  1.0000
  C   C215      1.0  0.07714473522392029  0.08947001602406905  0.2486905029204477  1.0000
  C   C216      1.0  0.9228949773894926  0.9105359464816364  0.7513104800121116  1.0000
  H   H257      1.0  0.1374993751412731  0.4141045519712452  0.2245201061187567  1.0000
  H   H258      1.0  0.8624579996728959  0.5859072159891374  0.7754761821647399  1.0000
  H   H259      1.0  0.3624066783203919  0.0859099171749953  0.22453023075402467  1.0000
  H   H260      1.0  0.6374983514776454  0.914088353252192  0.775465814630898  1.0000
  H   H261      1.0  0.36247797741773213  0.4141040175057966  0.27545876497111765  1.0000
  H   H262      1.0  0.6375507356138269  0.5859163993596556  0.7245442631201336  1.0000
  H   H263      1.0  0.13753456941748957  0.08591722045938949  0.27546038871266243  1.0000
  H   H264      1.0  0.862463371381474  0.9140750510510777  0.7245492883330603  1.0000
  H   H265      1.0  0.11758127071471723  0.3859450638221803  0.26960980431093595  1.0000
  H   H266      1.0  0.8824086860462161  0.6140641717914526  0.7303859733240626  1.0000
  H   H267      1.0  0.3823143752833034  0.11405635593337458  0.2696296310735086  1.0000
  H   H268      1.0  0.6175673036108098  0.8859349427535715  0.7303714286508667  1.0000
  H   H269      1.0  0.3824999421107708  0.38595382747248885  0.23037025275709305  1.0000
  H   H270      1.0  0.6175810308733594  0.6140711707993564  0.7696341106648354  1.0000
  H   H271      1.0  0.11766989882669054  0.11408937698648187  0.23037137606995364  1.0000
  H   H272      1.0  0.8823994991247618  0.8859231516733177  0.7696447586161915  1.0000
  H   H273      1.0  0.08413303372064092  0.4391499217848069  0.2682885552017048  1.0000
  H   H274      1.0  0.9158788478693414  0.5608607376759861  0.7317147718844514  1.0000
  H   H275      1.0  0.415822375541872  0.06085470168151105  0.26828559485902076  1.0000
  H   H276      1.0  0.5841519605388797  0.9391431240057486  0.7317015780582009  1.0000
  H   H277      1.0  0.41592610198287067  0.4391593290637397  0.23170607886290107  1.0000
  H   H278      1.0  0.5841422136550485  0.5608656511385279  0.7683046516972553  1.0000
  H   H279      1.0  0.08423298515489458  0.06088203022494113  0.2316797641806211  1.0000
  H   H280      1.0  0.9158377259562951  0.939131512752422  0.7683106586319429  1.0000
  C   C217      1.0  0.4205577851986496  0.5551880986278  0.07302653535946453  1.0000
  C   C218      1.0  0.5792569040540074  0.44479071695943323  0.9269462766558358  1.0000
  C   C219      1.0  0.07935385592861752  0.9448196284860341  0.07302403046033722  1.0000
  C   C220      1.0  0.9206998402764347  0.05505317310048895  0.9270135862966937  1.0000
  C   C221      1.0  0.079490843214801  0.5551904265395545  0.4269742144422041  1.0000
  C   C222      1.0  0.9203273192036465  0.4446736589724687  0.573139572201867  1.0000
  C   C223      1.0  0.4206964715664815  0.9448153302295244  0.426981228393921  1.0000
  C   C224      1.0  0.5799165529510114  0.055010350154649675  0.5729715021088586  1.0000
  H   H281      1.0  0.43045849081479426  0.5865047560003346  0.0843798244339439  1.0000
  H   H282      1.0  0.5693280267739744  0.41348104250225826  0.9155771697671744  1.0000
  H   H283      1.0  0.06946636617876195  0.9135040397611828  0.08438110327691906  1.0000
  H   H284      1.0  0.9307681402964286  0.08636456233980659  0.9156626754919953  1.0000
  H   H285      1.0  0.06957104696389964  0.5865083760978945  0.41562581606270255  1.0000
  H   H286      1.0  0.9301110977541907  0.41344298293205123  0.5847261154918665  1.0000
  H   H287      1.0  0.43060426054740797  0.9135005529102542  0.41562379397115845  1.0000
  H   H288      1.0  0.5699471423050733  0.08632753918812333  0.5843143129903292  1.0000
  H   H289      1.0  0.5146513106289357  0.5459471766678194  0.060412078300680655  1.0000
  H   H290      1.0  0.48518537195114697  0.4540274843958976  0.9395797085227791  1.0000
  H   H291      1.0  0.9852501079449048  0.9540593187973787  0.06041619846728004  1.0000
  H   H292      1.0  0.014769787416785266  0.04575430276775022  0.939602540686804  1.0000
  H   H293      1.0  0.9854132214850692  0.545948772858976  0.43959988285409524  1.0000
  H   H294      1.0  0.014410969582569152  0.4537740526164304  0.5604200211036559  1.0000
  H   H295      1.0  0.5147957544037371  0.9540621484898961  0.4395870751355427  1.0000
  H   H296      1.0  0.4856877133010003  0.04569767787496471  0.5605043448511934  1.0000
  H   H297      1.0  0.4001454227878008  0.5355424076645614  0.09867523853908153  1.0000
  H   H298      1.0  0.5996374527786646  0.46445047797178884  0.9013056195562413  1.0000
  H   H299      1.0  0.09979059109540271  0.9644678217728543  0.09866966953568437  1.0000
  H   H300      1.0  0.9001062230820664  0.035426158426110146  0.9013640765112919  1.0000
  H   H301      1.0  0.09986337746523778  0.5355479360708002  0.4013208624122489  1.0000
  H   H302      1.0  0.9000938883965728  0.46453530853026226  0.5986442181483115  1.0000
  H   H303      1.0  0.4002370511315824  0.9644621398938779  0.4013356689734737  1.0000
  H   H304      1.0  0.6008330891176965  0.035405015807314706  0.5986139036506797  1.0000
  N   N65       1.0  0.11314724536131311  0.6902091543580023  0.008046652714569814  1.0000
  N   N66       1.0  0.8868264048561119  0.309774689549746  0.9919151565547805  1.0000
  N   N67       1.0  0.3868708050187191  0.8097947091098316  0.008034537897228163  1.0000
  N   N68       1.0  0.6128152606777192  0.19014183627302847  0.9921265831152138  1.0000
  N   N69       1.0  0.3868027415149283  0.6901956609363716  0.4919558349663595  1.0000
  N   N70       1.0  0.6132315077944696  0.30951052092584114  0.5084550096959529  1.0000
  N   N71       1.0  0.11304708388291268  0.8097753480046702  0.4919799452675761  1.0000
  N   N72       1.0  0.8873705071989328  0.19000398174050737  0.507435548080931  1.0000
  C   C225      1.0  0.07326243446191658  0.650535251516436  0.009742272078058471  1.0000
  C   C226      1.0  0.9267462231275015  0.34944346057759085  0.9901708196794502  1.0000
  C   C227      1.0  0.42672686128935294  0.8494715030200363  0.009727408480037444  1.0000
  C   C228      1.0  0.5730438736241511  0.15045639302520908  0.990408893994649  1.0000
  C   C229      1.0  0.42671461131164096  0.650525211353052  0.4902546337217693  1.0000
  C   C230      1.0  0.5734645248246762  0.3492009756738924  0.5101299557901959  1.0000
  C   C231      1.0  0.07320944347756982  0.8494545340553646  0.49028801310582587  1.0000
  C   C232      1.0  0.9276710440538176  0.15036880075763362  0.5090902484946545  1.0000
  C   C233      1.0  0.19037240659647253  0.6646211614070368  0.06463640579695677  1.0000
  C   C234      1.0  0.809337156793023  0.3353246169322016  0.9353489182352043  1.0000
  C   C235      1.0  0.30962656396161964  0.8353814973492284  0.06462308111213044  1.0000
  C   C236      1.0  0.6907226913146416  0.16454836923956132  0.9356331694233678  1.0000
  C   C237      1.0  0.30962043752654167  0.6646142401409945  0.4353584515086498  1.0000
  C   C238      1.0  0.688939695477117  0.3349373099053566  0.5653058312196318  1.0000
  C   C239      1.0  0.190346514558634  0.8353673745026715  0.43539942352554867  1.0000
  C   C240      1.0  0.8097603342722876  0.164200669965534  0.5638283854965207  1.0000
  C   C241      1.0  0.0037666169571339983  0.6316971341303801  0.9754990604659255  1.0000
  C   C242      1.0  0.9962985606091037  0.36830433884630476  0.024395186178317922  1.0000
  C   C243      1.0  0.49623860465791525  0.868312989278244  0.9754886246117895  1.0000
  C   C244      1.0  0.503555121675805  0.13159143030686563  0.024639394522535725  1.0000
  C   C245      1.0  0.496219029390193  0.6316895058501212  0.5244966827022929  1.0000
  C   C246      1.0  0.5042665073766216  0.3680729243659519  0.47584150869698955  1.0000
  C   C247      1.0  0.0037041856246835723  0.8682969434976126  0.5245275004414661  1.0000
  C   C248      1.0  0.9970074145169971  0.13157530220803415  0.4748163828493286  1.0000
  H   H305      1.0  0.9246194645557487  0.6523527939587707  0.9664965245782878  1.0000
  H   H306      1.0  0.07550016455126043  0.34766054751640296  0.03338394907634911  1.0000
  H   H307      1.0  0.5753810622464282  0.8476566837823662  0.9664838656766134  1.0000
  H   H308      1.0  0.42433980439634295  0.15221670917856067  0.03365179297054492  1.0000
  H   H309      1.0  0.575330967274456  0.6523551796556072  0.5335060467111813  1.0000
  H   H310      1.0  0.42515852760341055  0.3474115233534154  0.46680550266841436  1.0000
  H   H311      1.0  0.9245622475895917  0.8476431525180249  0.5335369624727275  1.0000
  H   H312      1.0  0.07598262740321203  0.15223750333913838  0.4657052869147233  1.0000
  H   H313      1.0  0.9578483088343349  0.6030314649801578  0.9850687342916473  1.0000
  H   H314      1.0  0.04215338990402883  0.39697472737527023  0.014807381767822944  1.0000
  H   H315      1.0  0.5421646750456355  0.8969747210829523  0.9850655432611705  1.0000
  H   H316      1.0  0.45773884123593755  0.1029115019913517  0.015064027854534858  1.0000
  H   H317      1.0  0.5421826566098185  0.6030328676575509  0.5149215004308584  1.0000
  H   H318      1.0  0.45827759199305795  0.396727647293519  0.48542145694313593  1.0000
  H   H319      1.0  0.9577827349465718  0.8969600708037776  0.5149534235284813  1.0000
  H   H320      1.0  0.04308880572810322  0.10292299438819717  0.4843412350913413  1.0000
  C   C249      1.0  0.2639485115496728  0.6637914644824783  0.10293730599240274  1.0000
  C   C250      1.0  0.7353976174561387  0.33610574274576177  0.8971221734110105  1.0000
  C   C251      1.0  0.23605907395073963  0.8362113263479356  0.10292572545484792  1.0000
  C   C252      1.0  0.7650043709977519  0.16373342394556573  0.8974670597198414  1.0000
  C   C253      1.0  0.23604557043391583  0.6637890807424396  0.3970579563210473  1.0000
  C   C254      1.0  0.762307054775437  0.3358181582944723  0.6036677285386467  1.0000
  C   C255      1.0  0.2639220966082316  0.8362032605979768  0.3970980626421664  1.0000
  C   C256      1.0  0.7365341016483068  0.16326554217986483  0.6021602317618293  1.0000
  H   H321      1.0  0.2641590516212989  0.6319600456667224  0.11309579812480558  1.0000
  H   H322      1.0  0.7348076023166149  0.3679231611149521  0.8869364475237128  1.0000
  H   H323      1.0  0.23585663534028864  0.8680429566653434  0.11308378650770695  1.0000
  H   H324      1.0  0.7644445505567604  0.1319703301732038  0.8871195068392594  1.0000
  H   H325      1.0  0.23583240665132527  0.6319585048130947  0.38689715965324156  1.0000
  H   H326      1.0  0.7610939920701288  0.36760299844556876  0.6139613644088869  1.0000
  H   H327      1.0  0.26411694740785785  0.8680366185771179  0.38694471531766916  1.0000
  H   H328      1.0  0.735872919318771  0.13138664710213113  0.6121804476175582  1.0000
  H   H329      1.0  0.36642804317825356  0.6713097579818448  0.09669378093376535  1.0000
  H   H330      1.0  0.6330620565297044  0.3285202090427576  0.9034890305200424  1.0000
  H   H331      1.0  0.13357612503048563  0.8286956702880995  0.09668446071841176  1.0000
  H   H332      1.0  0.8675918866308756  0.17089799859105298  0.9039433471355548  1.0000
  H   H333      1.0  0.13356813099564357  0.6713089944329153  0.40330299550739507  1.0000
  H   H334      1.0  0.8651248609085511  0.32889136370614863  0.5972544882501767  1.0000
  H   H335      1.0  0.366407153295993  0.8286899382901403  0.40333854481828924  1.0000
  H   H336      1.0  0.6341058883793533  0.17108281236685877  0.5961291632849679  1.0000
  C   C257      1.0  0.862434580885417  0.6038333089301938  0.08736395867801595  1.0000
  C   C258      1.0  0.13752268846289184  0.39617296635543553  0.9126099705720094  1.0000
  C   C259      1.0  0.6374811660152089  0.8961854365217365  0.08736144786242991  1.0000
  C   C260      1.0  0.3626361967079821  0.1038123030916012  0.9127688302450926  1.0000
  C   C261      1.0  0.6376121630011506  0.6038500238462087  0.4126280363819955  1.0000
  C   C262      1.0  0.36195980498073205  0.39610433779516374  0.5876109254040821  1.0000
  C   C263      1.0  0.8625596199085316  0.896175603292164  0.41263804361640094  1.0000
  C   C264      1.0  0.13804126786809845  0.10360210537431165  0.5868336960243272  1.0000
  H   H337      1.0  0.8669732278741629  0.6307464172826566  0.06795217185258946  1.0000
  H   H338      1.0  0.13321827263308766  0.369316043965926  0.9321007075403139  1.0000
  H   H339      1.0  0.6329608884287578  0.869271166292107  0.06795106863984132  1.0000
  H   H340      1.0  0.3672330584260495  0.13073546338658631  0.9321654504103988  1.0000
  H   H341      1.0  0.6330381599768934  0.6307623004457478  0.4320406954363331  1.0000
  H   H342      1.0  0.3661566276702893  0.36924992443416743  0.568114746584141  1.0000
  H   H343      1.0  0.8670774450295379  0.869256854888008  0.4320422815635226  1.0000
  H   H344      1.0  0.13363603430799503  0.13048113303719064  0.5673758254072278  1.0000
  H   H345      1.0  0.7765407882587847  0.5863296002946661  0.07780856660013649  1.0000
  H   H346      1.0  0.22336742875082424  0.41374820383217104  0.9220805869983043  1.0000
  H   H347      1.0  0.7233632231466898  0.913693979767026  0.07780409717937192  1.0000
  H   H348      1.0  0.2766718044268657  0.08633767990250514  0.9223157180745509  1.0000
  H   H349      1.0  0.7235186099256949  0.5863541974607943  0.42218637982947504  1.0000
  H   H350      1.0  0.2761843468908579  0.4137183171555926  0.5781491530281992  1.0000
  H   H351      1.0  0.776686370575102  0.9136842176224745  0.4222026434574621  1.0000
  H   H352      1.0  0.2240368289275636  0.08608768626741105  0.5773837487208144  1.0000
  C   C265      1.0  0.09982166373935077  0.6242996011225439  0.9416435486582361  1.0000
  C   C266      1.0  0.9003039095810066  0.37569476136637014  0.05827222578339174  1.0000
  C   C267      1.0  0.4002005335774308  0.8757238547786389  0.9416315037930144  1.0000
  C   C268      1.0  0.5997011762120747  0.1242294752017213  0.058479785009471444  1.0000
  C   C269      1.0  0.4001760665040729  0.6242681150352887  0.5583506597345652  1.0000
  C   C270      1.0  0.6002848395683064  0.3755305925810911  0.4419824559207422  1.0000
  C   C271      1.0  0.09977331146593409  0.8757034466486907  0.5583763184999979  1.0000
  C   C272      1.0  0.9002709249720472  0.12419385022049301  0.4411465445839226  1.0000
  H   H353      1.0  0.15311407539881505  0.6524967713239951  0.9342292192665436  1.0000
  H   H354      1.0  0.8470555659417451  0.347489550015275  0.06569479193421536  1.0000
  H   H355      1.0  0.34687882739605125  0.8475330407425996  0.934214528378574  1.0000
  H   H356      1.0  0.6529605488379013  0.1524427190595979  0.06586040706176709  1.0000
  H   H357      1.0  0.3468384280396848  0.6524538552682811  0.5657756036351179  1.0000
  H   H358      1.0  0.6535666659764298  0.34735109230369493  0.4344914895581877  1.0000
  H   H359      1.0  0.15312895002716448  0.8475146640989856  0.5657782995037768  1.0000
  H   H360      1.0  0.8469154231888939  0.1524108327242932  0.43385523064479453  1.0000
  H   H361      1.0  0.047400682448230806  0.6133091945484853  0.9152936715009711  1.0000
  H   H362      1.0  0.9527698841872604  0.386690053489852  0.08461302076192055  1.0000
  H   H363      1.0  0.45263854920486823  0.886710005853596  0.9152831896263736  1.0000
  H   H364      1.0  0.5473648475024622  0.11325103848651615  0.0848496976549849  1.0000
  H   H365      1.0  0.45262086481464125  0.61327656505407  0.5846961749477665  1.0000
  H   H366      1.0  0.547788938402364  0.38657876139703673  0.41566571620758325  1.0000
  H   H367      1.0  0.04735963863864042  0.8866753845537924  0.5847341367609441  1.0000
  H   H368      1.0  0.9520586349792876  0.11319426823503446  0.41469308621768364  1.0000
  H   H369      1.0  0.17309652862807498  0.6016315587652893  0.9506268283770956  1.0000
  H   H370      1.0  0.8269836128426528  0.3983548687535394  0.04930073125791752  1.0000
  H   H371      1.0  0.3269505304414521  0.8983996951958494  0.9506144457281178  1.0000
  H   H372      1.0  0.6729888906705886  0.10156815734718154  0.04948876292522153  1.0000
  H   H373      1.0  0.32694072567547905  0.6015901013583814  0.549361657751364  1.0000
  H   H374      1.0  0.6735794319220326  0.39818300957865954  0.4509910869301081  1.0000
  H   H375      1.0  0.17299587443770517  0.8983857669788338  0.5493890149087515  1.0000
  H   H376      1.0  0.8271393150817449  0.10154836141935211  0.4502872504333602  1.0000
  N   N73       1.0  0.1850293432586014  0.6984516375387438  0.04148128766647897  1.0000
  N   N74       1.0  0.8147469805122105  0.3015141265369615  0.9585295395915028  1.0000
  N   N75       1.0  0.3149985944860005  0.801549281536798  0.04147079517681808  1.0000
  N   N76       1.0  0.6849844525587608  0.19839764260635925  0.9587636064185321  1.0000
  N   N77       1.0  0.31493196162349774  0.6984400320079143  0.4585203895694579  1.0000
  N   N78       1.0  0.6842057261844506  0.3011482263449763  0.5420497067181229  1.0000
  N   N79       1.0  0.1849433222337238  0.8015325019374857  0.4585473978566506  1.0000
  N   N80       1.0  0.814953511237578  0.19809993937167908  0.5407929613387218  1.0000
  C   C273      1.0  0.21068542021564912  0.6913177377813384  0.13581181073261916  1.0000
  C   C274      1.0  0.7884923515565265  0.30860158474083565  0.8642008656998844  1.0000
  C   C275      1.0  0.28932032401579516  0.8086852166500641  0.13580073380070923  1.0000
  C   C276      1.0  0.7131052119999955  0.19162056917424183  0.8646690767655599  1.0000
  C   C277      1.0  0.2893166827755289  0.6913186194917956  0.36418743077488624  1.0000
  C   C278      1.0  0.7112928935234578  0.30782592177988854  0.6365527877863174  1.0000
  C   C279      1.0  0.2106708692755073  0.808682769775749  0.36421720568932214  1.0000
  C   C280      1.0  0.7914557002905207  0.1905024084805385  0.6349639654680332  1.0000
  H   H377      1.0  0.19594311999191474  0.7229296679459793  0.12613618045694486  1.0000
  H   H378      1.0  0.8071916246564186  0.27729254117090113  0.8741813045002106  1.0000
  H   H379      1.0  0.30406278152090693  0.7770730556607953  0.12612587409437326  1.0000
  H   H380      1.0  0.6990129680071653  0.22321733710808817  0.8744911660662439  1.0000
  H   H381      1.0  0.30405606693116866  0.7229298054368208  0.37386610363232853  1.0000
  H   H382      1.0  0.6956082417269926  0.276361634172583  0.6265234410961601  1.0000
  H   H383      1.0  0.19592662991308923  0.7770686885467423  0.37388572229098505  1.0000
  H   H384      1.0  0.8030670585528653  0.22236963672825846  0.6257100906514027  1.0000
  H   H385      1.0  0.27808447117207824  0.6918818145451687  0.16108203057472528  1.0000
  H   H386      1.0  0.7190364306138951  0.3070381779780189  0.8394987696175554  1.0000
  H   H387      1.0  0.22191877995379236  0.8081217846185843  0.1610704317428716  1.0000
  H   H388      1.0  0.7809398202086937  0.19208899386469908  0.8395016808535033  1.0000
  H   H389      1.0  0.2219246145405532  0.6918842105827593  0.3389156626417953  1.0000
  H   H390      1.0  0.7810892141123039  0.30687143976983683  0.6612221125674133  1.0000
  H   H391      1.0  0.2780784809324884  0.8081245846476062  0.33894884459041874  1.0000
  H   H392      1.0  0.7265047300971863  0.1900577597514137  0.6607550259171361  1.0000
  H   H393      1.0  0.11650127519297405  0.6804487814605403  0.1468852858014603  1.0000
  H   H394      1.0  0.88055694019599  0.32020805096814936  0.852211536655206  1.0000
  H   H395      1.0  0.38350316901960985  0.8195540504185903  0.1468754603775373  1.0000
  H   H396      1.0  0.6187305324772661  0.180991653154728  0.8534993520408237  1.0000
  H   H397      1.0  0.3835037342674108  0.6804502760094336  0.3531158804863382  1.0000
  H   H398      1.0  0.6181124047896338  0.31857275669240787  0.6485288198969463  1.0000
  H   H399      1.0  0.11649082971271511  0.8195534460070262  0.35314202008018036  1.0000
  H   H400      1.0  0.8872463778221276  0.18004376109074424  0.6450634378182908  1.0000
  Cu  Cu37      1.0  0.25002623856965617  0.7499986830508676  0.03627319168288376  1.0000
  Cu  Cu38      1.0  0.7497217750826703  0.24998385302676876  0.9639075332067261  1.0000
  Cu  Cu39      1.0  0.2499120613290879  0.7499820483240609  0.46374153025726583  1.0000
  Cu  Cu40      1.0  0.7497302409134995  0.2496806426215949  0.5360946993762665  1.0000
  H   H401      1.0  0.5007635709356807  0.185812485719819  0.7287401483893171  1.0000
  C   C281      1.0  0.5238900540419131  0.21674337410761077  0.7181522650965996  1.0000
  H   H402      1.0  0.6281604392122152  0.21740986165568266  0.710695567213025  1.0000
  C   C282      1.0  0.4915313495836488  0.2479997206447436  0.7503045272619038  1.0000
  O   O1        1.0  0.5158588073592025  0.28939038302722386  0.737899680591693  1.0000
  H   H403      1.0  0.5463355842933835  0.24167272515024005  0.7778599471386596  1.0000
  H   H404      1.0  0.6059759232684031  0.2903977506264303  0.7292880404810257  1.0000
  H   H405      1.0  0.38766758955167996  0.24712582297162464  0.7583639353642538  1.0000
  H   H406      1.0  0.4675301770957769  0.22275493274738659  0.6910373569925986  1.0000
